data_kag+N123+E59
_audit_creation_date              2025-01-21
_audit_creation_method            'Materials Studio'
_symmetry_space_group_name_H-M    'P1'
_symmetry_Int_Tables_number       1
_symmetry_cell_setting            triclinic
loop_
_symmetry_equiv_pos_as_xyz
  x,y,z
_cell_length_a                    46.9954
_cell_length_b                    43.8081
_cell_length_c                    20.5341
_cell_angle_alpha                 104.3256
_cell_angle_beta                  91.1312
_cell_angle_gamma                 125.4903
loop_
_atom_site_label
_atom_site_type_symbol
_atom_site_fract_x
_atom_site_fract_y
_atom_site_fract_z
_atom_site_U_iso_or_equiv
_atom_site_adp_type
_atom_site_occupancy
Ce0    Ce    0.56121   0.54446   0.02874   0.00000  Uiso   1.00
Ce1    Ce    0.47217   0.48089   1.00830   0.00000  Uiso   1.00
C2     C     0.51570   0.48219   0.10413   0.00000  Uiso   1.00
C3     C     0.60416   0.54081  -0.05445   0.00000  Uiso   1.00
C4     C     0.51359   0.57567   1.08570   0.00000  Uiso   1.00
C5     C     0.51584   0.53241   0.91725   0.00000  Uiso   1.00
C6     C     0.40069   0.43248   0.99196   0.00000  Uiso   1.00
C7     C     0.51150   0.44346  -0.05292   0.00000  Uiso   1.00
O8     O     0.48781   0.45221   0.06915   0.00000  Uiso   1.00
O9     O     0.52105   0.51453   0.09370   0.00000  Uiso   1.00
O10    O     0.58172   0.51239  -0.03306   0.00000  Uiso   1.00
O11    O     0.60455   0.57092   0.96582   0.00000  Uiso   1.00
O12    O     0.54464   0.58388   1.08054   0.00000  Uiso   1.00
O13    O     0.48319   0.54081   1.06131   0.00000  Uiso   1.00
O14    O     0.54371   0.56337   0.94717   0.00000  Uiso   1.00
O15    O     0.51171   0.50425   0.94061   0.00000  Uiso   1.00
O16    O     0.41623   0.44236   0.94260   0.00000  Uiso   1.00
O17    O     0.42153   0.44711   0.04990   0.00000  Uiso   1.00
O18    O     0.48088   0.43454  -0.04139   0.00000  Uiso   1.00
O19    O     0.54129   0.47943  -0.03436   0.00000  Uiso   1.00
Ce20   Ce    0.03979   0.49490   0.05737   0.00000  Uiso   1.00
Ce21   Ce    0.99412   0.52297   0.01051   0.00000  Uiso   1.00
C22    C     1.02511   0.50333   0.91030   0.00000  Uiso   1.00
C23    C     0.08633   0.48448   1.10081   0.00000  Uiso   1.00
C24    C     0.95002   0.43476  -0.03708   0.00000  Uiso   1.00
C25    C    -0.01208   0.48233   0.12557   0.00000  Uiso   1.00
C26    C     0.96520   0.55624  -0.02608   0.00000  Uiso   1.00
C27    C     0.07985   0.58178   1.03439   0.00000  Uiso   1.00
O28    O     1.01837   0.52621   0.91172   0.00000  Uiso   1.00
O29    O     1.01061   0.48415   0.95725   0.00000  Uiso   1.00
O30    O     0.06873   0.46742   1.03822   0.00000  Uiso   1.00
O31    O     0.08070   0.50747   0.14030   0.00000  Uiso   1.00
O32    O     0.98314   0.44578  -0.02864   0.00000  Uiso   1.00
O33    O     0.94387   0.46029  -0.01983   0.00000  Uiso   1.00
O34    O    -0.00543   0.45843   0.10934   0.00000  Uiso   1.00
O35    O     0.01145   0.51746   0.11019   0.00000  Uiso   1.00
O36    O     0.97173   0.55798   0.03566   0.00000  Uiso   1.00
O37    O     0.97276   0.53701   0.93048   0.00000  Uiso   1.00
O38    O     0.05158   0.57999   1.03793   0.00000  Uiso   1.00
O39    O     0.08094   0.55272   1.03204   0.00000  Uiso   1.00
Ce40   Ce    0.52770   0.99239   0.98082   0.00000  Uiso   1.00
Ce41   Ce    0.47977   0.01519   0.00116   0.00000  Uiso   1.00
C42    C     0.48300  -0.00618   0.11335   0.00000  Uiso   1.00
C43    C     0.51859   0.92387   0.95848   0.00000  Uiso   1.00
C44    C     0.56187   0.08194   1.07781   0.00000  Uiso   1.00
C45    C     0.54000   1.02735   0.88555   0.00000  Uiso   1.00
C46    C     0.44055   0.04096   0.03614   0.00000  Uiso   1.00
C47    C     0.44147   0.92761  -0.09603   0.00000  Uiso   1.00
O48    O     0.46970   0.01060   0.10897   0.00000  Uiso   1.00
O49    O     0.48877  -0.02074   0.05086   0.00000  Uiso   1.00
O50    O     0.54245   0.95517   0.00752   0.00000  Uiso   1.00
O51    O     0.49998   0.92778   0.91955   0.00000  Uiso   1.00
O52    O     0.56733   0.05586   1.05705   0.00000  Uiso   1.00
O53    O     0.53161   0.07478   0.06201   0.00000  Uiso   1.00
O54    O     0.55708   1.01560   0.89862   0.00000  Uiso   1.00
O55    O     0.50910   1.01359   0.91371   0.00000  Uiso   1.00
O56    O     0.45401   0.04394   0.98255   0.00000  Uiso   1.00
O57    O     0.44625   0.02390   0.07102   0.00000  Uiso   1.00
O58    O     0.43507   0.95179  -0.06412   0.00000  Uiso   1.00
O59    O     0.47318   0.93601   0.90879   0.00000  Uiso   1.00
C60    C     0.48969   0.50141   0.66943   0.00000  Uiso   1.00
C61    C     0.47307   0.49007   0.54817   0.00000  Uiso   1.00
H62    H     0.58427   0.56921   0.39873   0.00000  Uiso   1.00
C63    C     0.53427   0.52042   0.59799   0.00000  Uiso   1.00
C64    C     0.52507   0.51800   0.66203   0.00000  Uiso   1.00
N65    N     0.53014   0.48220   0.21800   0.00000  Uiso   1.00
N66    N     0.50125   0.52611   0.79748   0.00000  Uiso   1.00
O67    O     0.56524   0.54818   0.26732   0.00000  Uiso   1.00
O68    O     0.44866   0.46979   0.73557   0.00000  Uiso   1.00
H69    H     0.56854   0.51124   0.15866   0.00000  Uiso   1.00
H70    H     0.54177   0.45834   0.12925   0.00000  Uiso   1.00
H71    H     0.56957   0.56589   0.51135   0.00000  Uiso   1.00
H72    H     0.48191   0.45630   0.30227   0.00000  Uiso   1.00
H73    H     0.46811   0.45219   0.41422   0.00000  Uiso   1.00
H74    H     0.51190   0.45411   0.22242   0.00000  Uiso   1.00
H75    H     0.43629   0.47387   0.61564   0.00000  Uiso   1.00
H76    H     0.46333   0.49735   0.85812   0.00000  Uiso   1.00
H77    H     0.48604   0.54948   0.87995   0.00000  Uiso   1.00
H78    H     0.45250   0.47960   0.50528   0.00000  Uiso   1.00
H79    H     0.54546   0.52828   0.70513   0.00000  Uiso   1.00
H80    H     0.56146   0.53223   0.59321   0.00000  Uiso   1.00
H81    H     0.52651   0.55088   0.79744   0.00000  Uiso   1.00
C82    C     0.55877   0.54355   0.40158   0.00000  Uiso   1.00
C83    C     0.54407   0.51551   0.27336   0.00000  Uiso   1.00
C84    C     0.54115   0.48373   0.15203   0.00000  Uiso   1.00
C85    C     0.51768   0.50865   0.47192   0.00000  Uiso   1.00
C86    C     0.53461   0.51280   0.34134   0.00000  Uiso   1.00
C87    C     0.55047   0.54149   0.46612   0.00000  Uiso   1.00
C88    C     0.50174   0.48011   0.34719   0.00000  Uiso   1.00
C89    C     0.49347   0.47804   0.41163   0.00000  Uiso   1.00
C90    C     0.46380   0.48702   0.61157   0.00000  Uiso   1.00
C91    C     0.47880   0.49794   0.73611   0.00000  Uiso   1.00
C92    C     0.48946   0.52591   0.86309   0.00000  Uiso   1.00
C93    C     0.50832   0.50644   0.54027   0.00000  Uiso   1.00
C94    C     0.97637   0.49548   0.35483   0.00000  Uiso   1.00
C95    C     0.96478   0.49384   0.46907   0.00000  Uiso   1.00
H96    H     0.00981   0.42259   0.60483   0.00000  Uiso   1.00
C97    C     0.00678   0.48242   0.42768   0.00000  Uiso   1.00
C98    C     0.00079   0.48769   0.36591   0.00000  Uiso   1.00
N99    N     0.03529   0.49684   0.79434   0.00000  Uiso   1.00
N100   N     0.96442   0.47285   0.22813   0.00000  Uiso   1.00
O101   O     0.01154   0.43388   0.73459   0.00000  Uiso   1.00
O102   O     0.96510   0.52413   0.28666   0.00000  Uiso   1.00
H103   H     0.03657   0.46485   0.85668   0.00000  Uiso   1.00
H104   H     0.07328   0.51660   0.88118   0.00000  Uiso   1.00
H105   H    -0.00333   0.43025   0.49696   0.00000  Uiso   1.00
H106   H     1.00405   0.51581   0.71652   0.00000  Uiso   1.00
H107   H     0.99321   0.52501   0.60963   0.00000  Uiso   1.00
H108   H     0.04366   0.52463   0.79353   0.00000  Uiso   1.00
H109   H     0.94000   0.50534   0.39984   0.00000  Uiso   1.00
H110   H     0.95438   0.49794   0.16209   0.00000  Uiso   1.00
H111   H     0.93255   0.44569   0.12847   0.00000  Uiso   1.00
H112   H     0.95018   0.49579   0.50796   0.00000  Uiso   1.00
H113   H     0.01546   0.48598   0.32694   0.00000  Uiso   1.00
H114   H     0.02598   0.47674   0.43500   0.00000  Uiso   1.00
H115   H    -0.03473   0.44982   0.23056   0.00000  Uiso   1.00
C116   C     0.00615   0.44498   0.60640   0.00000  Uiso   1.00
C117   C     0.01847   0.46541   0.73468   0.00000  Uiso   1.00
C118   C     0.04409   0.49454   0.86073   0.00000  Uiso   1.00
C119   C    -0.00544   0.47877   0.54483   0.00000  Uiso   1.00
C120   C     0.00922   0.46944   0.66947   0.00000  Uiso   1.00
C121   C    -0.00108   0.44960   0.54473   0.00000  Uiso   1.00
C122   C     1.00348   0.49755   0.66934   0.00000  Uiso   1.00
C123   C     0.99649   0.50233   0.60777   0.00000  Uiso   1.00
C124   C     0.95892   0.49929   0.40734   0.00000  Uiso   1.00
C125   C     0.96847   0.49870   0.28802   0.00000  Uiso   1.00
C126   C     0.95762   0.47454   0.15976   0.00000  Uiso   1.00
C127   C    -0.01146   0.48499   0.47967   0.00000  Uiso   1.00
C128   C     0.50961   0.02999   0.65313   0.00000  Uiso   1.00
C129   C     0.51018   0.03550   0.53783   0.00000  Uiso   1.00
H130   H     0.40425   0.90735   0.30186   0.00000  Uiso   1.00
C131   C     0.47335   0.97094   0.55270   0.00000  Uiso   1.00
C132   C     0.48494   0.98864   0.62416   0.00000  Uiso   1.00
N133   N     0.47162  -0.05504   0.16786   0.00000  Uiso   1.00
N134   N     0.52612   1.02987   0.77244   0.00000  Uiso   1.00
O135   O     0.42243   0.89072   0.18607   0.00000  Uiso   1.00
O136   O     0.53343   0.08338   0.75353   0.00000  Uiso   1.00
H137   H     0.48047   0.99904   0.21946   0.00000  Uiso   1.00
H138   H     0.51880   0.00330   0.19468   0.00000  Uiso   1.00
H139   H     0.41965   0.93640   0.42741   0.00000  Uiso   1.00
H140   H     0.51615  -0.01964   0.29474   0.00000  Uiso   1.00
H141   H     0.53131   0.00960   0.41973   0.00000  Uiso   1.00
H142   H     0.47275  -0.07175   0.12327   0.00000  Uiso   1.00
H143   H     0.54033   0.08517   0.62969   0.00000  Uiso   1.00
H144   H     0.55056   0.07806   0.86566   0.00000  Uiso   1.00
H145   H     0.57808   1.06425   0.83231   0.00000  Uiso   1.00
H146   H     0.51999   0.05411   0.50515   0.00000  Uiso   1.00
H147   H     0.47434   0.96990   0.65649   0.00000  Uiso   1.00
H148   H     0.45478   0.93903   0.53168   0.00000  Uiso   1.00
H149   H     0.51747   1.00088   0.75087   0.00000  Uiso   1.00
C150   C     0.43209   0.92987   0.32703   0.00000  Uiso   1.00
C151   C     0.44944   0.92447   0.21202   0.00000  Uiso   1.00
C152   C     0.48963  -0.01299   0.17846   0.00000  Uiso   1.00
C153   C     0.47664   0.97572   0.43301   0.00000  Uiso   1.00
C154   C     0.45892   0.94259   0.28809   0.00000  Uiso   1.00
C155   C     0.44085   0.94625   0.39878   0.00000  Uiso   1.00
C156   C     0.49475  -0.02876   0.32274   0.00000  Uiso   1.00
C157   C     0.50346  -0.01222   0.39430   0.00000  Uiso   1.00
C158   C     0.52156   0.05321   0.60908   0.00000  Uiso   1.00
C159   C     0.52333   0.04948   0.72860   0.00000  Uiso   1.00
C160   C     0.55050   1.05255   0.83968   0.00000  Uiso   1.00
C161   C     0.48640  -0.00581   0.50883   0.00000  Uiso   1.00
C162   C     0.20159   0.50986   0.09147   0.00000  Uiso   1.00
C163   C     0.25604   0.51650   0.11836   0.00000  Uiso   1.00
H164   H     0.31254   0.47072   0.89814   0.00000  Uiso   1.00
C165   C     0.22176   0.48332   1.00169   0.00000  Uiso   1.00
C166   C     0.19738   0.49055   1.02216   0.00000  Uiso   1.00
N167   N     0.34819   0.42960   1.00534   0.00000  Uiso   1.00
N168   N     0.13810   0.48417   0.08844   0.00000  Uiso   1.00
O169   O     0.32470   0.42005   0.89936   0.00000  Uiso   1.00
O170   O     0.18292   0.54081   0.16779   0.00000  Uiso   1.00
H171   H     0.35288   0.38550   1.01283   0.00000  Uiso   1.00
H172   H     0.34901   0.38761  -0.07234   0.00000  Uiso   1.00
H173   H     0.27964   0.49708   0.93529   0.00000  Uiso   1.00
H174   H     0.30568   0.43860   0.08303   0.00000  Uiso   1.00
H175   H     0.27385   0.46577   0.12064   0.00000  Uiso   1.00
H176   H     0.35468   0.44433   0.05793   0.00000  Uiso   1.00
H177   H     0.23620   0.53947   0.19221   0.00000  Uiso   1.00
H178   H     0.12204   0.49416   0.18329   0.00000  Uiso   1.00
H179   H     0.09375   0.44482   1.12555   0.00000  Uiso   1.00
H180   H     0.27849   0.52666   0.15644   0.00000  Uiso   1.00
H181   H     0.17502   0.48037   0.98385   0.00000  Uiso   1.00
H182   H     0.21713   0.46705   0.94852   0.00000  Uiso   1.00
H183   H     0.13033   0.46204   1.04235   0.00000  Uiso   1.00
C184   C     0.30427   0.46954   0.94687   0.00000  Uiso   1.00
C185   C     0.32865   0.43317   0.96136   0.00000  Uiso   1.00
C186   C     0.36099   0.40601   0.98245   0.00000  Uiso   1.00
C187   C     0.27387   0.48310   1.03042   0.00000  Uiso   1.00
C188   C     0.31192   0.45267   0.98763   0.00000  Uiso   1.00
C189   C     0.28540   0.48453   0.96795   0.00000  Uiso   1.00
C190   C     0.30114   0.45220   0.05098   0.00000  Uiso   1.00
C191   C     0.28262   0.46756   0.07239   0.00000  Uiso   1.00
C192   C     0.23197   0.52409   0.13864   0.00000  Uiso   1.00
C193   C     0.17380   0.51310   0.11721   0.00000  Uiso   1.00
C194   C     0.11025   0.47639   0.12806   0.00000  Uiso   1.00
C195   C     0.25076   0.49524   0.05005   0.00000  Uiso   1.00
C196   C     0.66353   0.19028   1.03653   0.00000  Uiso   1.00
C197   C     0.70584   0.25190   1.01221   0.00000  Uiso   1.00
H198   H     0.85627   0.33048   0.09985   0.00000  Uiso   1.00
C199   C     0.72537   0.21510   0.03821   0.00000  Uiso   1.00
C200   C     0.69081   0.18607   0.04398   0.00000  Uiso   1.00
N201   N     0.88787   0.37856  -0.05082   0.00000  Uiso   1.00
N202   N     0.62322   0.14139   1.09464   0.00000  Uiso   1.00
O203   O     0.89869   0.34996   0.01245   0.00000  Uiso   1.00
O204   O     0.60225   0.15955   1.02532   0.00000  Uiso   1.00
H205   H     0.92842   0.37375  -0.08288   0.00000  Uiso   1.00
H206   H     0.91420   0.39261   0.86761   0.00000  Uiso   1.00
H207   H     0.79510   0.28571   0.11476   0.00000  Uiso   1.00
H208   H     0.81543   0.32462   0.90331   0.00000  Uiso   1.00
H209   H     0.75429   0.27964   0.91822   0.00000  Uiso   1.00
H210   H     0.87169   0.38623   0.93644   0.00000  Uiso   1.00
H211   H     0.65091   0.22713   1.01218   0.00000  Uiso   1.00
H212   H     0.58233   0.14112   1.13685   0.00000  Uiso   1.00
H213   H     0.59847   0.11971   0.17395   0.00000  Uiso   1.00
H214   H     0.71133   0.27737   1.00037   0.00000  Uiso   1.00
H215   H     0.68571   0.16033   0.05368   0.00000  Uiso   1.00
H216   H     0.74601   0.21143   0.04517   0.00000  Uiso   1.00
H217   H     0.64449   0.14262   0.11513   0.00000  Uiso   1.00
C218   C     0.83424   0.31997   0.06030   0.00000  Uiso   1.00
C219   C     0.87755   0.35392  -0.01172   0.00000  Uiso   1.00
C220   C     0.92016   0.39323  -0.07923   0.00000  Uiso   1.00
C221   C     0.77012   0.27905   0.01737   0.00000  Uiso   1.00
C222   C     0.84068   0.33123   0.00071   0.00000  Uiso   1.00
C223   C     0.79933   0.29429   0.06868   0.00000  Uiso   1.00
C224   C     0.81143   0.31725   0.95056   0.00000  Uiso   1.00
C225   C     0.77643   0.29144   0.95892   0.00000  Uiso   1.00
C226   C     0.67133   0.22313   1.01899   0.00000  Uiso   1.00
C227   C     0.62770   0.16232   1.05068   0.00000  Uiso   1.00
C228   C     0.59149   0.12233   1.12462   0.00000  Uiso   1.00
C229   C     0.73331   0.24847   1.02305   0.00000  Uiso   1.00
C230   C     0.68919   0.51053  -0.07517   0.00000  Uiso   1.00
C231   C     0.72345   0.48491  -0.07441   0.00000  Uiso   1.00
H232   H     0.85535   0.56586   0.83465   0.00000  Uiso   1.00
C233   C     0.75357   0.55351  -0.06576   0.00000  Uiso   1.00
C234   C     0.72108   0.54783  -0.06861   0.00000  Uiso   1.00
N235   N     0.91280   0.55432  -0.04386   0.00000  Uiso   1.00
N236   N     0.65335   0.53727   0.93730   0.00000  Uiso   1.00
O237   O     0.89337   0.53961   0.84129   0.00000  Uiso   1.00
O238   O     0.62668   0.47080  -0.10576   0.00000  Uiso   1.00
H239   H     0.95557   0.57904  -0.09727   0.00000  Uiso   1.00
H240   H     0.96569   0.60660  -0.00875   0.00000  Uiso   1.00
H241   H     0.80024   0.55785  -0.15124   0.00000  Uiso   1.00
H242   H     0.84242   0.50696   0.98412   0.00000  Uiso   1.00
H243   H     0.78635   0.49803   0.99721   0.00000  Uiso   1.00
H244   H     0.90554   0.55231   0.00349   0.00000  Uiso   1.00
H245   H     0.66661   0.44996  -0.08309   0.00000  Uiso   1.00
H246   H     0.61057   0.51188   0.85371   0.00000  Uiso   1.00
H247   H     0.64204   0.56491   0.88241   0.00000  Uiso   1.00
H248   H     0.72381   0.46005   0.92183   0.00000  Uiso   1.00
H249   H     0.72098   0.57251  -0.06811   0.00000  Uiso   1.00
H250   H     0.77758   0.58250  -0.06164   0.00000  Uiso   1.00
H251   H     0.67316   0.56270   0.97715   0.00000  Uiso   1.00
C252   C     0.84058   0.55107   0.87040   0.00000  Uiso   1.00
C253   C     0.88690   0.54290   0.89880   0.00000  Uiso   1.00
C254   C     0.95082   0.57619  -0.04556   0.00000  Uiso   1.00
C255   C     0.78904   0.52738   0.92409   0.00000  Uiso   1.00
C256   C     0.85319   0.53720   0.90847   0.00000  Uiso   1.00
C257   C     0.80916   0.54667   0.87874   0.00000  Uiso   1.00
C258   C     0.83345   0.51829   0.95465   0.00000  Uiso   1.00
C259   C     0.80134   0.51299   0.96182   0.00000  Uiso   1.00
C260   C     0.69075   0.47914  -0.07756   0.00000  Uiso   1.00
C261   C     0.65449   0.50424  -0.08246   0.00000  Uiso   1.00
C262   C     0.62746   0.53846   0.89984   0.00000  Uiso   1.00
C263   C     0.75507   0.52201  -0.07002   0.00000  Uiso   1.00
C264   C     0.18990   0.70155   0.08786   0.00000  Uiso   1.00
C265   C     0.25178   0.74203   0.07607   0.00000  Uiso   1.00
H266   H     0.29311   0.85430   0.93062   0.00000  Uiso   1.00
C267   C     0.20617   0.73362   0.99952   0.00000  Uiso   1.00
C268   C     0.18024   0.70932   1.03231   0.00000  Uiso   1.00
N269   N     0.38519   0.86703  -0.09841   0.00000  Uiso   1.00
N270   N     0.12597   0.65091   1.09621   0.00000  Uiso   1.00
O271   O     0.34323   0.87323   0.86197   0.00000  Uiso   1.00
O272   O     0.17272   0.68563   0.18768   0.00000  Uiso   1.00
H273   H     0.41981   0.86975   0.83610   0.00000  Uiso   1.00
H274   H     0.39785   0.88988  -0.18261   0.00000  Uiso   1.00
H275   H     0.24772   0.80937   0.98479   0.00000  Uiso   1.00
H276   H     0.34564   0.79996  -0.06537   0.00000  Uiso   1.00
H277   H     0.30026   0.75516  -0.01186   0.00000  Uiso   1.00
H278   H     0.39390   0.86067  -0.06012   0.00000  Uiso   1.00
H279   H     0.23404   0.71224   0.15150   0.00000  Uiso   1.00
H280   H     0.13375   0.61584   0.01834   0.00000  Uiso   1.00
H281   H     0.10608   0.62773   0.98916   0.00000  Uiso   1.00
H282   H     0.27942   0.75500   0.09463   0.00000  Uiso   1.00
H283   H     0.15286   0.69781   1.01567   0.00000  Uiso   1.00
H284   H     0.19801   0.73936   0.95719   0.00000  Uiso   1.00
H285   H     0.10775   0.64995   1.12570   0.00000  Uiso   1.00
C286   C     0.29490   0.83270   0.94275   0.00000  Uiso   1.00
C287   C     0.35040   0.85803   0.89498   0.00000  Uiso   1.00
C288   C     0.41052   0.88731  -0.14022   0.00000  Uiso   1.00
C289   C     0.27016   0.77837   0.98978   0.00000  Uiso   1.00
C290   C     0.32318   0.83099   0.92866   0.00000  Uiso   1.00
C291   C     0.26875   0.80677   0.97317   0.00000  Uiso   1.00
C292   C     0.32474   0.80279  -0.05410   0.00000  Uiso   1.00
C293   C     0.29856   0.77684  -0.02379   0.00000  Uiso   1.00
C294   C     0.22586   0.71780   0.10889   0.00000  Uiso   1.00
C295   C     0.16318   0.67903   0.12703   0.00000  Uiso   1.00
C296   C     0.11284   0.61962   1.03091   0.00000  Uiso   1.00
C297   C     0.24231   0.75074   0.02181   0.00000  Uiso   1.00
C298   C     0.50755   0.66501   1.01597   0.00000  Uiso   1.00
C299   C     0.48216   0.69560   0.98380   0.00000  Uiso   1.00
H300   H     0.55955   0.86045   0.13019   0.00000  Uiso   1.00
C301   C     0.54587   0.73476   0.02555   0.00000  Uiso   1.00
C302   C     0.54180   0.70126   1.03059   0.00000  Uiso   1.00
N303   N     0.49741   0.87190   1.00783   0.00000  Uiso   1.00
N304   N     0.52415   0.63761   1.08864   0.00000  Uiso   1.00
O305   O     0.53141   0.89395   0.11325   0.00000  Uiso   1.00
O306   O     0.47404   0.59811   1.00679   0.00000  Uiso   1.00
H307   H     0.53645   0.88804  -0.05439   0.00000  Uiso   1.00
H308   H     0.49120   0.86266   0.90162   0.00000  Uiso   1.00
H309   H     0.55896   0.80294   0.10835   0.00000  Uiso   1.00
H310   H     0.48005   0.80258   0.94382   0.00000  Uiso   1.00
H311   H     0.47942   0.74492   0.92190   0.00000  Uiso   1.00
H312   H     0.47413   0.86828   1.01830   0.00000  Uiso   1.00
H313   H     0.45136   0.63453   0.97626   0.00000  Uiso   1.00
H314   H     0.48582   0.59744   1.13515   0.00000  Uiso   1.00
H315   H     0.53136   0.62379   0.17602   0.00000  Uiso   1.00
H316   H     0.45848   0.69275   0.96733   0.00000  Uiso   1.00
H317   H     0.56548   0.70440   0.04809   0.00000  Uiso   1.00
H318   H     0.57240   0.76264   0.03985   0.00000  Uiso   1.00
H319   H     0.54836   0.66551   0.11146   0.00000  Uiso   1.00
C320   C     0.54232   0.83565   0.08404   0.00000  Uiso   1.00
C321   C     0.51732   0.86919   0.05639   0.00000  Uiso   1.00
C322   C     0.51139   0.88499   0.94955   0.00000  Uiso   1.00
C323   C     0.51922   0.76930   1.01315   0.00000  Uiso   1.00
C324   C     0.51967   0.83597   0.03912   0.00000  Uiso   1.00
C325   C     0.54216   0.80275   0.07114   0.00000  Uiso   1.00
C326   C     0.49775   0.80324   0.97967   0.00000  Uiso   1.00
C327   C     0.49734   0.77013   0.96709   0.00000  Uiso   1.00
C328   C     0.47806   0.66213   0.98899   0.00000  Uiso   1.00
C329   C     0.50134   0.63140   1.03537   0.00000  Uiso   1.00
C330   C     0.51296   0.60884   1.12511   0.00000  Uiso   1.00
C331   C     0.51592   0.73266   1.00502   0.00000  Uiso   1.00
C332   C     0.43940   0.14418   0.99916   0.00000  Uiso   1.00
C333   C     0.44636   0.18864   0.93858   0.00000  Uiso   1.00
H334   H     0.55789   0.35532   0.04026   0.00000  Uiso   1.00
C335   C     0.47424   0.21505   0.05885   0.00000  Uiso   1.00
C336   C     0.46036   0.17687   0.05926   0.00000  Uiso   1.00
N337   N     0.50156   0.38196  -0.05494   0.00000  Uiso   1.00
N338   N     0.43801   0.09587   0.05012   0.00000  Uiso   1.00
O339   O     0.55548   0.39658  -0.02635   0.00000  Uiso   1.00
O340   O     0.39898   0.07541   0.95189   0.00000  Uiso   1.00
H341   H     0.54049   0.42331  -0.10071   0.00000  Uiso   1.00
H342   H     0.49488   0.39547   0.85707   0.00000  Uiso   1.00
H343   H     0.53443   0.29112   0.05374   0.00000  Uiso   1.00
H344   H     0.45427   0.30407   0.92292   0.00000  Uiso   1.00
H345   H     0.43105   0.24150   0.93950   0.00000  Uiso   1.00
H346   H     0.47480   0.36549   0.94908   0.00000  Uiso   1.00
H347   H     0.41626   0.12620   0.89190   0.00000  Uiso   1.00
H348   H     0.39250   0.03537   1.02422   0.00000  Uiso   1.00
H349   H     0.41725   0.05823   0.11115   0.00000  Uiso   1.00
H350   H     0.44102   0.19262   0.89099   0.00000  Uiso   1.00
H351   H     0.46544   0.17311   0.10717   0.00000  Uiso   1.00
H352   H     0.48980   0.23959   0.10603   0.00000  Uiso   1.00
H353   H     0.46272   0.11878   0.08297   0.00000  Uiso   1.00
C354   C     0.52999   0.33085   0.01886   0.00000  Uiso   1.00
C355   C     0.52317   0.37333  -0.03277   0.00000  Uiso   1.00
C356   C     0.51300   0.41077  -0.09162   0.00000  Uiso   1.00
C357   C     0.48098   0.26129  -0.00281   0.00000  Uiso   1.00
C358   C     0.50792   0.33550  -0.01826   0.00000  Uiso   1.00
C359   C     0.51660   0.29416   0.02680   0.00000  Uiso   1.00
C360   C     0.47204   0.30262  -0.04613   0.00000  Uiso   1.00
C361   C     0.45875   0.26621   0.96206   0.00000  Uiso   1.00
C362   C     0.43244   0.15062   0.93900   0.00000  Uiso   1.00
C363   C     0.42384   0.10328   0.99840   0.00000  Uiso   1.00
C364   C     0.41981   0.05643   0.05685   0.00000  Uiso   1.00
C365   C     0.46726   0.22126  -0.00152   0.00000  Uiso   1.00
loop_
_geom_bond_atom_site_label_1
_geom_bond_atom_site_label_2
_geom_bond_distance
_geom_bond_site_symmetry_2
_ccdc_geom_bond_type
Ce0    O9      2.270   .     S
Ce0    O10     2.292   .     S
Ce0    O19     2.388   .     S
Ce0    O11     2.295   1_554 S
Ce0    O12     2.325   1_554 S
Ce0    O14     2.365   1_554 S
Ce0    O15     2.299   1_554 S
Ce1    O13     2.308   .     S
Ce1    O15     2.243   .     S
Ce1    O16     2.272   .     S
Ce1    O8      2.344   1_556 S
Ce1    O9      2.270   1_556 S
Ce1    O17     2.280   1_556 S
Ce1    O18     2.299   1_556 S
C2     O8      1.207   .     D
C2     O9      1.362   .     S
C2     C84     1.493   .     S
C3     O10     1.273   .     A
C3     O11     1.270   1_554 A
C3     C262    1.488   1_554 S
C4     O12     1.298   .     A
C4     O13     1.298   .     A
C4     C330    1.495   .     S
C5     O14     1.194   .     D
C5     O15     1.345   .     S
C5     C92     1.495   .     S
C6     O16     1.276   .     A
C6     C186    1.492   .     S
C6     O17     1.278   1_556 A
C7     O18     1.298   .     A
C7     O19     1.307   .     A
C7     C356    1.498   .     S
O8     Ce1     2.344   1_554 S
O9     Ce1     2.270   1_554 S
O11    Ce0     2.295   1_556 S
O11    C3      1.270   1_556 A
O12    Ce0     2.325   1_556 S
O14    Ce0     2.365   1_556 S
O15    Ce0     2.299   1_556 S
O17    Ce1     2.280   1_554 S
O17    C6      1.278   1_554 A
O18    Ce1     2.299   1_554 S
Ce20   O31     2.253   .     S
Ce20   O34     2.280   .     S
Ce20   O35     2.232   .     S
Ce20   O29     2.234   1_454 S
Ce20   O30     2.267   1_554 S
Ce20   O32     2.474   1_455 S
Ce20   O39     2.330   1_554 S
Ce21   O33     2.252   .     S
Ce21   O36     2.287   .     S
Ce21   O28     2.341   1_554 S
Ce21   O29     2.309   1_554 S
Ce21   O35     2.306   1_655 S
Ce21   O37     2.289   1_554 S
Ce21   O38     2.294   1_654 S
C22    O28     1.208   .     D
C22    O29     1.364   .     S
C22    C118    1.490   1_655 S
C23    O30     1.288   .     A
C23    O31     1.287   1_556 A
C23    C194    1.496   1_556 S
C24    O32     1.327   .     A
C24    O33     1.282   .     A
C24    C220    1.495   .     S
C25    O34     1.231   .     D
C25    O35     1.403   .     S
C25    C126    1.494   1_455 S
C26    O36     1.272   .     A
C26    C254    1.493   .     S
C26    O37     1.273   1_554 A
C27    O38     1.289   .     A
C27    O39     1.293   .     A
C27    C296    1.495   .     S
O28    Ce21    2.341   1_556 S
O29    Ce20    2.234   1_656 S
O29    Ce21    2.309   1_556 S
O30    Ce20    2.267   1_556 S
O31    C23     1.287   1_554 A
O32    Ce20    2.474   1_655 S
O35    Ce21    2.306   1_455 S
O37    Ce21    2.289   1_556 S
O37    C26     1.273   1_556 A
O38    Ce21    2.294   1_456 S
O39    Ce20    2.330   1_556 S
Ce40   O51     2.277   .     S
Ce40   O54     2.258   .     S
Ce40   O55     2.248   .     S
Ce40   O59     2.355   .     S
Ce40   O49     2.244   1_566 S
Ce40   O50     2.276   1_556 S
Ce40   O52     2.317   1_565 S
Ce41   O48     2.306   .     S
Ce41   O49     2.291   .     S
Ce41   O53     2.279   .     S
Ce41   O57     2.281   .     S
Ce41   O55     2.297   1_544 S
Ce41   O56     2.278   1_554 S
Ce41   O58     2.279   1_545 S
C42    O48     1.226   .     D
C42    O49     1.392   .     S
C42    C152    1.504   .     S
C43    O51     1.283   .     A
C43    C322    1.491   .     S
C43    O50     1.280   1_556 A
C44    O52     1.287   .     A
C44    C228    1.496   .     S
C44    O53     1.280   1_556 A
C45    O54     1.233   .     D
C45    O55     1.413   .     S
C45    C160    1.500   .     S
C46    O57     1.278   .     A
C46    C364    1.493   .     S
C46    O56     1.277   1_554 A
C47    O58     1.295   .     A
C47    C288    1.493   .     S
C47    O59     1.306   1_554 A
O49    Ce40    2.244   1_544 S
O50    Ce40    2.276   1_554 S
O50    C43     1.280   1_554 A
O52    Ce40    2.317   1_545 S
O53    C44     1.280   1_554 A
O55    Ce41    2.297   1_566 S
O56    Ce41    2.278   1_556 S
O56    C46     1.277   1_556 A
O58    Ce41    2.279   1_565 S
O59    C47     1.306   1_556 A
C60    C64     1.406   .     A
C60    C90     1.404   .     A
C60    C91     1.483   .     S
C61    H78     1.083   .     S
C61    C90     1.394   .     A
C61    C93     1.405   .     A
H62    C82     1.084   .     S
C63    C64     1.402   .     A
C63    H80     1.083   .     S
C63    C93     1.408   .     A
C64    H79     1.083   .     S
N65    H74     1.044   .     S
N65    C83     1.375   .     S
N65    C84     1.463   .     S
N66    H81     1.045   .     S
N66    C91     1.375   .     S
N66    C92     1.467   .     S
O67    C83     1.222   .     D
O68    C91     1.221   .     D
H69    C84     1.113   .     S
H70    C84     1.112   .     S
H71    C87     1.083   .     S
H72    C88     1.081   .     S
H73    C89     1.082   .     S
H75    C90     1.083   .     S
H76    C92     1.110   .     S
H77    C92     1.109   .     S
C82    C86     1.407   .     A
C82    C87     1.398   .     A
C83    C86     1.485   .     S
C85    C87     1.406   .     A
C85    C89     1.406   .     A
C85    C93     1.488   .     S
C86    C88     1.406   .     A
C88    C89     1.396   .     A
C94    C124    1.403   .     A
C94    C125    1.475   .     S
C94    C98     1.403   1_655 A
C95    H112    1.082   .     S
C95    C124    1.397   .     A
C95    C127    1.407   1_655 A
H96    C116    1.083   .     S
C97    C98     1.395   .     A
C97    H114    1.083   .     S
C97    C127    1.406   .     A
C98    H113    1.083   .     S
C98    C94     1.403   1_455 A
N99    H108    1.045   .     S
N99    C117    1.373   .     S
N99    C118    1.461   .     S
N100   C125    1.372   .     S
N100   C126    1.463   .     S
N100   H115    1.045   1_655 S
O101   C117    1.221   .     D
O102   C125    1.220   .     D
H103   C118    1.111   .     S
H104   C118    1.109   .     S
H105   C121    1.083   .     S
H106   C122    1.081   .     S
H107   C123    1.082   .     S
H109   C124    1.083   .     S
H110   C126    1.111   .     S
H111   C126    1.113   .     S
H115   N100    1.045   1_455 S
C116   C120    1.404   .     A
C116   C121    1.396   .     A
C117   C120    1.482   .     S
C118   C22     1.490   1_455 S
C119   C121    1.406   .     A
C119   C127    1.483   .     S
C119   C123    1.404   1_455 A
C120   C122    1.406   1_455 A
C122   C123    1.394   .     A
C122   C120    1.406   1_655 A
C123   C119    1.404   1_655 A
C126   C25     1.494   1_655 S
C127   C95     1.407   1_455 A
C128   C158    1.407   .     A
C128   C159    1.488   .     S
C128   C132    1.407   1_545 A
C129   H146    1.083   .     S
C129   C158    1.398   .     A
C129   C161    1.404   .     A
H130   C150    1.083   .     S
C131   C132    1.402   .     A
C131   H148    1.083   .     S
C131   C161    1.406   1_565 A
C132   H147    1.082   .     S
C132   C128    1.407   1_565 A
N133   H142    1.045   .     S
N133   C152    1.463   .     S
N133   C151    1.438   1_545 S
N134   H149    1.044   .     S
N134   C160    1.464   .     S
N134   C159    1.440   1_565 S
O135   C151    1.219   .     D
O136   C159    1.220   .     D
H137   C152    1.109   1_565 S
H138   C152    1.108   .     S
H139   C155    1.083   .     S
H140   C156    1.082   .     S
H141   C157    1.083   .     S
H143   C158    1.084   .     S
H144   C160    1.111   1_545 S
H145   C160    1.114   .     S
C150   C154    1.409   .     A
C150   C155    1.402   .     A
C151   C154    1.489   .     S
C151   N133    1.438   1_565 S
C152   H137    1.109   1_545 S
C153   C155    1.404   .     A
C153   C157    1.405   1_565 A
C153   C161    1.485   1_565 S
C154   C156    1.405   1_565 A
C156   C157    1.399   .     A
C156   C154    1.405   1_545 A
C157   C153    1.405   1_545 A
C159   N134    1.440   1_545 S
C160   H144    1.111   1_565 S
C161   C131    1.406   1_545 A
C161   C153    1.485   1_545 S
C162   C192    1.406   .     A
C162   C193    1.487   .     S
C162   C166    1.407   1_554 A
C163   H180    1.083   .     S
C163   C192    1.397   .     A
C163   C195    1.403   .     A
H164   C184    1.083   .     S
C165   C166    1.401   .     A
C165   H182    1.083   .     S
C165   C195    1.407   1_556 A
C166   H181    1.082   .     S
C166   C162    1.407   1_556 A
N167   C185    1.374   .     S
N167   C186    1.464   .     S
N167   H176    1.044   1_556 S
N168   C193    1.375   .     S
N168   C194    1.467   .     S
N168   H183    1.044   1_554 S
O169   C185    1.221   .     D
O170   C193    1.221   .     D
H171   C186    1.109   .     S
H172   C186    1.110   1_554 S
H173   C189    1.083   .     S
H174   C190    1.081   .     S
H175   C191    1.084   .     S
H176   N167    1.044   1_554 S
H177   C192    1.083   .     S
H178   C194    1.112   .     S
H179   C194    1.111   1_556 S
H183   N168    1.044   1_556 S
C184   C188    1.407   .     A
C184   C189    1.399   .     A
C185   C188    1.486   .     S
C186   H172    1.110   1_556 S
C187   C189    1.404   .     A
C187   C191    1.406   1_556 A
C187   C195    1.485   1_556 S
C188   C190    1.406   1_556 A
C190   C191    1.398   .     A
C190   C188    1.406   1_554 A
C191   C187    1.406   1_554 A
C194   H179    1.111   1_554 S
C194   C23     1.496   1_554 S
C195   C165    1.407   1_554 A
C195   C187    1.485   1_554 S
C196   C226    1.409   .     A
C196   C227    1.490   .     S
C196   C200    1.408   1_556 A
C197   H214    1.083   .     S
C197   C226    1.400   .     A
C197   C229    1.403   .     A
H198   C218    1.083   .     S
C199   C200    1.397   .     A
C199   H216    1.083   .     S
C199   C229    1.403   1_554 A
C200   H215    1.081   .     S
C200   C196    1.408   1_554 A
N201   C219    1.372   .     S
N201   C220    1.464   .     S
N201   H210    1.045   1_554 S
N202   C227    1.376   .     S
N202   C228    1.464   .     S
N202   H217    1.043   1_556 S
O203   C219    1.219   .     D
O204   C227    1.222   .     D
H205   C220    1.113   .     S
H206   C220    1.111   1_556 S
H207   C223    1.083   .     S
H208   C224    1.083   .     S
H209   C225    1.084   .     S
H210   N201    1.045   1_556 S
H211   C226    1.083   .     S
H212   C228    1.113   .     S
H213   C228    1.111   1_554 S
H217   N202    1.043   1_554 S
C218   C222    1.404   .     A
C218   C223    1.397   .     A
C219   C222    1.483   .     S
C220   H206    1.111   1_554 S
C221   C223    1.404   .     A
C221   C225    1.405   1_554 A
C221   C229    1.482   1_554 S
C222   C224    1.407   1_554 A
C224   C225    1.400   .     A
C224   C222    1.407   1_556 A
C225   C221    1.405   1_556 A
C228   H213    1.111   1_556 S
C229   C199    1.403   1_556 A
C229   C221    1.482   1_556 S
C230   C234    1.405   .     A
C230   C260    1.408   .     A
C230   C261    1.485   .     S
C231   C260    1.402   .     A
C231   C263    1.405   .     A
C231   H248    1.083   1_554 S
H232   C252    1.083   .     S
C233   C234    1.395   .     A
C233   H250    1.083   .     S
C233   C263    1.404   .     A
C234   H249    1.081   .     S
N235   H244    1.044   .     S
N235   C254    1.464   .     S
N235   C253    1.436   1_554 S
N236   H251    1.045   .     S
N236   C262    1.460   .     S
N236   C261    1.436   1_556 S
O237   C253    1.220   .     D
O238   C261    1.220   .     D
H239   C254    1.111   .     S
H240   C254    1.111   .     S
H241   C257    1.083   1_554 S
H242   C258    1.083   .     S
H243   C259    1.083   .     S
H245   C260    1.083   .     S
H246   C262    1.111   .     S
H247   C262    1.110   .     S
H248   C231    1.083   1_556 S
C252   C256    1.402   .     A
C252   C257    1.394   .     A
C253   C256    1.479   .     S
C253   N235    1.436   1_556 S
C255   C257    1.404   .     A
C255   C259    1.407   .     A
C255   C263    1.485   1_556 S
C256   C258    1.406   .     A
C257   H241    1.083   1_556 S
C258   C259    1.404   .     A
C261   N236    1.436   1_554 S
C262   C3      1.488   1_556 S
C263   C255    1.485   1_554 S
C264   C294    1.404   .     A
C264   C295    1.480   .     S
C264   C268    1.405   1_554 A
C265   H282    1.083   .     S
C265   C294    1.396   .     A
C265   C297    1.405   .     A
H266   C286    1.083   .     S
C267   C268    1.397   .     A
C267   H284    1.083   .     S
C267   C297    1.406   1_556 A
C268   H283    1.082   .     S
C268   C264    1.405   1_556 A
N269   H278    1.045   .     S
N269   C288    1.461   .     S
N269   C287    1.437   1_554 S
N270   H285    1.045   .     S
N270   C296    1.461   .     S
N270   C295    1.430   1_556 S
O271   C287    1.221   .     D
O272   C295    1.219   .     D
H273   C288    1.110   1_556 S
H274   C288    1.109   .     S
H275   C291    1.083   .     S
H276   C292    1.082   .     S
H277   C293    1.083   .     S
H279   C294    1.083   .     S
H280   C296    1.112   1_554 S
H281   C296    1.110   .     S
C286   C290    1.406   .     A
C286   C291    1.397   .     A
C287   C290    1.483   .     S
C287   N269    1.437   1_556 S
C288   H273    1.110   1_554 S
C289   C291    1.405   .     A
C289   C293    1.404   1_556 A
C289   C297    1.483   1_556 S
C290   C292    1.406   1_556 A
C292   C293    1.397   .     A
C292   C290    1.406   1_554 A
C293   C289    1.404   1_554 A
C295   N270    1.430   1_554 S
C296   H280    1.112   1_556 S
C297   C267    1.406   1_554 A
C297   C289    1.483   1_554 S
C298   C302    1.407   .     A
C298   C328    1.406   .     A
C298   C329    1.486   .     S
C299   H316    1.082   .     S
C299   C328    1.396   .     A
C299   C331    1.405   .     A
H300   C320    1.083   .     S
C301   H318    1.083   .     S
C301   C302    1.397   1_554 A
C301   C331    1.405   1_554 A
C302   C301    1.397   1_556 A
C302   H317    1.081   1_556 S
N303   H312    1.045   .     S
N303   C322    1.458   .     S
N303   C321    1.427   1_556 S
N304   C329    1.374   .     S
N304   C330    1.463   .     S
N304   H319    1.044   1_556 S
O305   C321    1.219   .     D
O306   C329    1.221   .     D
H307   C322    1.112   1_554 S
H308   C322    1.111   .     S
H309   C325    1.083   .     S
H310   C326    1.083   .     S
H311   C327    1.083   .     S
H313   C328    1.083   .     S
H314   C330    1.113   .     S
H315   C330    1.112   1_554 S
H317   C302    1.081   1_554 S
H319   N304    1.044   1_554 S
C320   C324    1.403   .     A
C320   C325    1.395   .     A
C321   C324    1.479   .     S
C321   N303    1.427   1_554 S
C322   H307    1.112   1_556 S
C323   C327    1.406   .     A
C323   C331    1.485   .     S
C323   C325    1.407   1_556 A
C324   C326    1.406   1_554 A
C325   C323    1.407   1_554 A
C326   C327    1.397   .     A
C326   C324    1.406   1_556 A
C330   H315    1.112   1_556 S
C331   C301    1.405   1_556 A
C332   C362    1.406   .     A
C332   C363    1.487   .     S
C332   C336    1.408   1_556 A
C333   H350    1.083   .     S
C333   C362    1.394   .     A
C333   C365    1.404   1_556 A
H334   C354    1.083   .     S
C335   C336    1.401   .     A
C335   H352    1.083   .     S
C335   C365    1.404   .     A
C336   H351    1.081   .     S
C336   C332    1.408   1_554 A
N337   C355    1.376   .     S
N337   C356    1.466   .     S
N337   H346    1.044   1_554 S
N338   H353    1.045   .     S
N338   C364    1.464   .     S
N338   C363    1.439   1_554 S
O339   C355    1.221   .     D
O340   C363    1.221   .     D
H341   C356    1.114   .     S
H342   C356    1.112   1_556 S
H343   C359    1.083   .     S
H344   C360    1.080   1_556 S
H345   C361    1.083   .     S
H346   N337    1.044   1_556 S
H347   C362    1.083   .     S
H348   C364    1.110   1_556 S
H349   C364    1.112   .     S
C354   C358    1.410   .     A
C354   C359    1.402   .     A
C355   C358    1.491   .     S
C356   H342    1.112   1_554 S
C357   C359    1.405   .     A
C357   C365    1.484   .     S
C357   C361    1.403   1_554 A
C358   C360    1.407   .     A
C360   H344    1.080   1_554 S
C360   C361    1.394   1_554 A
C361   C357    1.403   1_556 A
C361   C360    1.394   1_556 A
C363   N338    1.439   1_556 S
C364   H348    1.110   1_554 S
C365   C333    1.404   1_554 A
