data_kag+N155+E59
_audit_creation_date              2025-01-21
_audit_creation_method            'Materials Studio'
_symmetry_space_group_name_H-M    'P1'
_symmetry_Int_Tables_number       1
_symmetry_cell_setting            triclinic
loop_
_symmetry_equiv_pos_as_xyz
  x,y,z
_cell_length_a                    43.7244
_cell_length_b                    44.7191
_cell_length_c                    20.9406
_cell_angle_alpha                 90.3409
_cell_angle_beta                  95.4630
_cell_angle_gamma                 123.7319
loop_
_atom_site_label
_atom_site_type_symbol
_atom_site_fract_x
_atom_site_fract_y
_atom_site_fract_z
_atom_site_U_iso_or_equiv
_atom_site_adp_type
_atom_site_occupancy
C0     C     0.48880   0.41579  -0.01321   0.00000  Uiso   1.00
Ho1    Ho    0.49139   0.47514   0.00490   0.00000  Uiso   1.00
C2     C     0.46174   0.57443   1.01781   0.00000  Uiso   1.00
Ho3    Ho    0.50846   0.56261   0.97867   0.00000  Uiso   1.00
O4     O     0.49646   0.43201   0.04182   0.00000  Uiso   1.00
O5     O     0.48259   0.43124   0.94198   0.00000  Uiso   1.00
O6     O     0.51661   0.50018   0.10618   0.00000  Uiso   1.00
O7     O     0.49404   0.52226   0.05064   0.00000  Uiso   1.00
C8     C     0.51477   0.52591   0.10610   0.00000  Uiso   1.00
C9     C     0.49901   0.51499   0.88408   0.00000  Uiso   1.00
O10    O     0.54962   0.50993  -0.01117   0.00000  Uiso   1.00
O11    O     0.56042   0.56561   1.01021   0.00000  Uiso   1.00
O12    O     0.45821   0.56176   0.96069   0.00000  Uiso   1.00
O13    O     0.49049   0.58113   0.05357   0.00000  Uiso   1.00
O14    O     0.51932   0.54715   0.88509   0.00000  Uiso   1.00
O15    O     0.48020   0.50654   0.93578   0.00000  Uiso   1.00
O16    O     0.46325   0.50360   0.99784   0.00000  Uiso   1.00
O17    O     0.43290   0.44723   0.01857   0.00000  Uiso   1.00
C18    C     0.43102   0.47411   1.00677   0.00000  Uiso   1.00
C19    C     0.57124   0.54430   0.00196   0.00000  Uiso   1.00
C20    C     0.09735   0.50177   0.08906   0.00000  Uiso   1.00
Ho21   Ho    0.04092   0.49980   0.03291   0.00000  Uiso   1.00
C22    C     0.90974   0.48608   0.91996   0.00000  Uiso   1.00
Ho23   Ho    0.96902   0.49215   0.97264   0.00000  Uiso   1.00
O24    O     0.07889   0.51068   0.11817   0.00000  Uiso   1.00
O25    O     0.08652   0.49317   1.02895   0.00000  Uiso   1.00
O26    O     0.00496   0.46763   0.10793   0.00000  Uiso   1.00
O27    O     1.00034   0.50781   0.06648   0.00000  Uiso   1.00
C28    C     0.98795   0.48153   0.10887   0.00000  Uiso   1.00
C29    C     0.02246   0.51208   0.89720   0.00000  Uiso   1.00
O30    O     0.06291   0.55768   0.02436   0.00000  Uiso   1.00
O31    O     0.00904   0.55215   0.97953   0.00000  Uiso   1.00
O32    O     0.92945   0.47961   0.88888   0.00000  Uiso   1.00
O33    O     0.92208   0.49631  -0.02067   0.00000  Uiso   1.00
O34    O     1.00516   0.52569   0.89899   0.00000  Uiso   1.00
O35    O     0.01012   0.48514   0.93841   0.00000  Uiso   1.00
O36    O     0.94680   0.43457   0.98350   0.00000  Uiso   1.00
O37    O     1.00062   0.43997   0.02727   0.00000  Uiso   1.00
C38    C     0.96535   0.42103   1.00519   0.00000  Uiso   1.00
C39    C     0.04419   0.57118   0.00307   0.00000  Uiso   1.00
C40    C     0.56467   0.97542   0.92777   0.00000  Uiso   1.00
Ho41   Ho    0.54458   1.01236   0.98940   0.00000  Uiso   1.00
C42    C     0.43844   0.02661   0.06718   0.00000  Uiso   1.00
Ho43   Ho    0.45854  -0.00928   0.00225   0.00000  Uiso   1.00
O44    O     0.57783   1.00844   0.92107   0.00000  Uiso   1.00
O45    O     0.54000   0.96187  -0.03377   0.00000  Uiso   1.00
O46    O     0.53347   1.02948   0.89314   0.00000  Uiso   1.00
O47    O     0.49003  -0.01211   0.93150   0.00000  Uiso   1.00
C48    C     0.50055   0.01103   0.88544   0.00000  Uiso   1.00
C49    C     0.50209  -0.00782   0.10709   0.00000  Uiso   1.00
O50    O     0.50597   0.95112   0.98823   0.00000  Uiso   1.00
O51    O     0.44660   0.93612  -0.00411   0.00000  Uiso   1.00
O52    O     0.42507  -0.00656   0.07127   0.00000  Uiso   1.00
O53    O     0.46308   0.04097   1.02870   0.00000  Uiso   1.00
O54    O     0.46923  -0.02676   0.09806   0.00000  Uiso   1.00
O55    O     0.51304   1.01517   0.06054   0.00000  Uiso   1.00
O56    O     0.49701   0.05200   0.00395   0.00000  Uiso   1.00
O57    O     0.55626   0.06692   0.99461   0.00000  Uiso   1.00
C58    C     0.53232   0.07519  -0.00109   0.00000  Uiso   1.00
C59    C     0.47059   0.92789   0.99249   0.00000  Uiso   1.00
C60    C     0.48347   0.49534   0.65472   0.00000  Uiso   1.00
C61    C     0.46439   0.50068   0.54476   0.00000  Uiso   1.00
H62    H     0.57784   0.59833   0.38985   0.00000  Uiso   1.00
C63    C     0.52788   0.52025   0.57645   0.00000  Uiso   1.00
C64    C     0.51940   0.50988   0.63848   0.00000  Uiso   1.00
N65    N     0.52255   0.54295   0.22091   0.00000  Uiso   1.00
N66    N     0.50143   0.50180   0.77257   0.00000  Uiso   1.00
O67    O     0.55664   0.59863   0.27016   0.00000  Uiso   1.00
O68    O     0.44285   0.46123   0.72914   0.00000  Uiso   1.00
H69    H     0.52527   0.57555   0.14621   0.00000  Uiso   1.00
H70    H     0.56344   0.57047   0.15840   0.00000  Uiso   1.00
H71    H     0.56301   0.57750   0.49703   0.00000  Uiso   1.00
H72    H     0.47308   0.50435   0.30696   0.00000  Uiso   1.00
H73    H     0.45919   0.48283   0.41356   0.00000  Uiso   1.00
H74    H     0.50661   0.51514   0.22538   0.00000  Uiso   1.00
H75    H     0.42780   0.47866   0.61767   0.00000  Uiso   1.00
H76    H     0.51912   0.48443   0.85222   0.00000  Uiso   1.00
H77    H     0.46978   0.46213   0.83772   0.00000  Uiso   1.00
H78    H     0.44280   0.49737   0.50942   0.00000  Uiso   1.00
H79    H     0.54099   0.51274   0.67325   0.00000  Uiso   1.00
H80    H     0.55577   0.53116   0.56546   0.00000  Uiso   1.00
H81    H     0.52742   0.52458   0.76639   0.00000  Uiso   1.00
C82    C     0.55183   0.57304   0.39442   0.00000  Uiso   1.00
C83    C     0.53607   0.56619   0.27494   0.00000  Uiso   1.00
C84    C     0.53295   0.55619   0.15754   0.00000  Uiso   1.00
C85    C     0.50993   0.52846   0.46376   0.00000  Uiso   1.00
C86    C     0.52693   0.55277   0.33963   0.00000  Uiso   1.00
C87    C     0.54348   0.56099   0.45576   0.00000  Uiso   1.00
C88    C     0.49340   0.52022   0.34769   0.00000  Uiso   1.00
C89    C     0.48510   0.50815   0.40901   0.00000  Uiso   1.00
C90    C     0.45587   0.49024   0.60686   0.00000  Uiso   1.00
C91    C     0.47451   0.48490   0.72091   0.00000  Uiso   1.00
C92    C     0.49667   0.48845   0.83685   0.00000  Uiso   1.00
C93    C     0.50057   0.51612   0.52903   0.00000  Uiso   1.00
C94    C    -0.01266   0.49979   0.33448   0.00000  Uiso   1.00
C95    C     0.98860   0.51724   0.44581   0.00000  Uiso   1.00
H96    H     0.00740   0.43985   0.64891   0.00000  Uiso   1.00
C97    C     0.01174   0.48069   0.42288   0.00000  Uiso   1.00
C98    C     0.00341   0.48133   0.35687   0.00000  Uiso   1.00
N99    N     0.03881   0.51962   0.78822   0.00000  Uiso   1.00
N100   N     0.97166   0.47356   0.21796   0.00000  Uiso   1.00
O101   O     1.04166   0.47144   0.76049   0.00000  Uiso   1.00
O102   O    -0.02536   0.52489   0.24675   0.00000  Uiso   1.00
H103   H     0.06443   0.50697   0.86540   0.00000  Uiso   1.00
H104   H     0.07540   0.55205   0.86962   0.00000  Uiso   1.00
H105   H    -0.00682   0.44122   0.53376   0.00000  Uiso   1.00
H106   H     1.04928   0.55274   0.67594   0.00000  Uiso   1.00
H107   H     1.03536   0.55408   0.56091   0.00000  Uiso   1.00
H108   H     0.02894   0.53539   0.77376   0.00000  Uiso   1.00
H109   H     0.96820   0.53263   0.36453   0.00000  Uiso   1.00
H110   H     0.94792   0.48917   0.14239   0.00000  Uiso   1.00
H111   H     0.93428   0.44318   0.13580   0.00000  Uiso   1.00
H112   H     0.98210   0.53085   0.47943   0.00000  Uiso   1.00
H113   H     0.01042   0.46794   0.32391   0.00000  Uiso   1.00
H114   H     0.02460   0.46670   0.43856   0.00000  Uiso   1.00
H115   H     0.97471   0.45299   0.23242   0.00000  Uiso   1.00
C116   C     0.01359   0.46495   0.63029   0.00000  Uiso   1.00
C117   C     0.03702   0.49462   0.74198   0.00000  Uiso   1.00
C118   C     0.05284   0.52342   0.85612   0.00000  Uiso   1.00
C119   C     0.01296   0.49772   0.53825   0.00000  Uiso   1.00
C120   C     0.02875   0.49594   0.67197   0.00000  Uiso   1.00
C121   C     0.00563   0.46577   0.56430   0.00000  Uiso   1.00
C122   C     1.03650   0.52802   0.64581   0.00000  Uiso   1.00
C123   C     1.02864   0.52887   0.57974   0.00000  Uiso   1.00
C124   C     0.98041   0.51802   0.37992   0.00000  Uiso   1.00
C125   C     0.97782   0.50072   0.26461   0.00000  Uiso   1.00
C126   C     0.95795   0.47129   0.15030   0.00000  Uiso   1.00
C127   C     0.00435   0.49856   0.46810   0.00000  Uiso   1.00
C128   C     0.46800   0.99571   0.65206   0.00000  Uiso   1.00
C129   C     0.45766   0.97081   0.54249   0.00000  Uiso   1.00
H130   H     0.57608   0.04724   0.38442   0.00000  Uiso   1.00
C131   C     0.50605   0.03354   0.57152   0.00000  Uiso   1.00
C132   C     0.49684   0.02929   0.63438   0.00000  Uiso   1.00
N133   N     0.51270  -0.00962   0.22238   0.00000  Uiso   1.00
N134   N     0.48549   0.01309   0.77183   0.00000  Uiso   1.00
O135   O     0.56295   0.04418   0.26127   0.00000  Uiso   1.00
O136   O     0.42679   0.96736   0.72856   0.00000  Uiso   1.00
H137   H     0.55521   0.01331   0.15939   0.00000  Uiso   1.00
H138   H     0.52464   0.96510   0.15304   0.00000  Uiso   1.00
H139   H     0.55695   0.04131   0.49157   0.00000  Uiso   1.00
H140   H     0.46129   0.98089   0.30277   0.00000  Uiso   1.00
H141   H     0.44226   0.97643   0.41003   0.00000  Uiso   1.00
H142   H     0.48740   0.96720   0.23050   0.00000  Uiso   1.00
H143   H     0.42594   0.94040   0.61756   0.00000  Uiso   1.00
H144   H     0.44654   0.99353   0.84078   0.00000  Uiso   1.00
H145   H     0.48046   0.04155   0.84604   0.00000  Uiso   1.00
H146   H     0.44275   0.94762   0.50804   0.00000  Uiso   1.00
H147   H     0.51204   0.05254   0.66866   0.00000  Uiso   1.00
H148   H     0.52816   0.05986   0.55926   0.00000  Uiso   1.00
H149   H     0.51330   0.02980   0.76424   0.00000  Uiso   1.00
C150   C     0.54676   0.03165   0.38926   0.00000  Uiso   1.00
C151   C     0.53313   0.01732   0.27055   0.00000  Uiso   1.00
C152   C     0.52599  -0.00957   0.16071   0.00000  Uiso   1.00
C153   C     0.49810   0.00828   0.45928   0.00000  Uiso   1.00
C154   C     0.52038   0.01412   0.33496   0.00000  Uiso   1.00
C155   C     0.53581   0.02852   0.45064   0.00000  Uiso   1.00
C156   C     0.48253   0.99410   0.34343   0.00000  Uiso   1.00
C157   C     0.47154   0.99144   0.40495   0.00000  Uiso   1.00
C158   C     0.44826   0.96661   0.60528   0.00000  Uiso   1.00
C159   C     0.45823   0.99085   0.71875   0.00000  Uiso   1.00
C160   C     0.47604   0.01484   0.83621   0.00000  Uiso   1.00
C161   C     0.48681   1.00427   0.52501   0.00000  Uiso   1.00
C162   C     0.22242   0.52996   0.07949   0.00000  Uiso   1.00
C163   C     0.27926   0.53152   0.09234   0.00000  Uiso   1.00
H164   H     0.35574   0.54266   0.87671   0.00000  Uiso   1.00
C165   C     0.24607   0.52046   0.98626   0.00000  Uiso   1.00
C166   C     0.21949   0.52323   1.01278   0.00000  Uiso   1.00
N167   N     0.38129   0.46975  -0.06360   0.00000  Uiso   1.00
N168   N     0.15657   0.50775   0.08579   0.00000  Uiso   1.00
O169   O     0.38318   0.50673   0.86005   0.00000  Uiso   1.00
O170   O     0.20227   0.55004   0.15820   0.00000  Uiso   1.00
H171   H     0.40090   0.49638   1.03045   0.00000  Uiso   1.00
H172   H     0.37523   0.44775   0.02628   0.00000  Uiso   1.00
H173   H     0.31492   0.55536   0.92469   0.00000  Uiso   1.00
H174   H     0.33186   0.46243   0.01358   0.00000  Uiso   1.00
H175   H     0.29383   0.47737   0.06381   0.00000  Uiso   1.00
H176   H     0.38174   0.45229  -0.09631   0.00000  Uiso   1.00
H177   H     0.25581   0.53972   0.17041   0.00000  Uiso   1.00
H178   H     0.13696   0.51511   0.17079   0.00000  Uiso   1.00
H179   H     0.11330   0.46992   1.13615   0.00000  Uiso   1.00
H180   H     0.30207   0.53446   0.12380   0.00000  Uiso   1.00
H181   H     0.19668   0.51997   0.98099   0.00000  Uiso   1.00
H182   H     0.24277   0.51431   0.93498   0.00000  Uiso   1.00
H183   H     0.14922   0.49158   1.04346   0.00000  Uiso   1.00
C184   C     0.34243   0.52816   0.91753   0.00000  Uiso   1.00
C185   C     0.37214   0.49389   0.91076   0.00000  Uiso   1.00
C186   C     0.39580   0.47227   1.00349   0.00000  Uiso   1.00
C187   C     0.30177   0.51764   0.99836   0.00000  Uiso   1.00
C188   C     0.34825   0.50223   0.94214   0.00000  Uiso   1.00
C189   C     0.31918   0.53555   0.94498   0.00000  Uiso   1.00
C190   C     0.32989   0.48377  -0.00525   0.00000  Uiso   1.00
C191   C     0.30760   0.49198   0.02336   0.00000  Uiso   1.00
C192   C     0.25294   0.53469   0.11880   0.00000  Uiso   1.00
C193   C     0.19332   0.53049   0.10951   0.00000  Uiso   1.00
C194   C     0.12658   0.49846   0.12447   0.00000  Uiso   1.00
C195   C     0.27579   0.52398   0.02593   0.00000  Uiso   1.00
C196   C     0.64610   0.18587   0.96093   0.00000  Uiso   1.00
C197   C     0.70050   0.24205   0.93349   0.00000  Uiso   1.00
H198   H     0.82884   0.31540   0.12238   0.00000  Uiso   1.00
C199   C     0.70716   0.20826   0.01705   0.00000  Uiso   1.00
C200   C     0.66908   0.18197   0.00689   0.00000  Uiso   1.00
N201   N     0.90505   0.36358   0.99088   0.00000  Uiso   1.00
N202   N     0.58586   0.13797   0.00305   0.00000  Uiso   1.00
O203   O     0.89190   0.36293   0.09449   0.00000  Uiso   1.00
O204   O     0.58802   0.15603   0.89991   0.00000  Uiso   1.00
H205   H     0.95069   0.37479   0.05721   0.00000  Uiso   1.00
H206   H     0.95527   0.37032   0.97409   0.00000  Uiso   1.00
H207   H     0.76323   0.26816   0.09862   0.00000  Uiso   1.00
H208   H     0.83806   0.32286   0.91816   0.00000  Uiso   1.00
H209   H     0.77293   0.27568   0.89545   0.00000  Uiso   1.00
H210   H     0.89586   0.36190   0.94240   0.00000  Uiso   1.00
H211   H     0.64556   0.21942   0.88710   0.00000  Uiso   1.00
H212   H     0.53217   0.11783   0.95380   0.00000  Uiso   1.00
H213   H     0.53595   0.12120   0.03989   0.00000  Uiso   1.00
H214   H     0.71208   0.26530   0.90503   0.00000  Uiso   1.00
H215   H     0.65791   0.15856   0.03478   0.00000  Uiso   1.00
H216   H     0.72423   0.20456   0.05267   0.00000  Uiso   1.00
H217   H     0.60043   0.14170   0.04811   0.00000  Uiso   1.00
C218   C     0.81714   0.30710   0.07251   0.00000  Uiso   1.00
C219   C     0.87978   0.35094   0.03873   0.00000  Uiso   1.00
C220   C     0.94489   0.38098   0.00795   0.00000  Uiso   1.00
C221   C     0.76310   0.26791  -0.00477   0.00000  Uiso   1.00
C222   C     0.83939   0.32310   0.02255   0.00000  Uiso   1.00
C223   C     0.77955   0.27981   0.05903   0.00000  Uiso   1.00
C224   C     0.82261   0.31145   0.95853   0.00000  Uiso   1.00
C225   C     0.78491   0.28429   0.94514   0.00000  Uiso   1.00
C226   C     0.66242   0.21580   0.92335   0.00000  Uiso   1.00
C227   C     0.60532   0.15926   0.95171   0.00000  Uiso   1.00
C228   C     0.54539   0.11415   0.99835   0.00000  Uiso   1.00
C229   C     0.72314   0.23891   0.98136   0.00000  Uiso   1.00
C230   C     0.66051   0.51845   0.94819   0.00000  Uiso   1.00
C231   C     0.69470   0.49980   0.89378   0.00000  Uiso   1.00
H232   H     0.76681   0.43971   0.02946   0.00000  Uiso   1.00
C233   C     0.70204   0.50624   0.01006   0.00000  Uiso   1.00
C234   C     0.67685   0.51625   1.00767   0.00000  Uiso   1.00
N235   N     0.85923   0.49327   0.93303   0.00000  Uiso   1.00
N236   N     0.62096   0.53453   0.00079   0.00000  Uiso   1.00
O237   O     0.81781   0.43969  -0.02589   0.00000  Uiso   1.00
O238   O     0.62933   0.54149   0.89408   0.00000  Uiso   1.00
H239   H     0.85483   0.45261  -0.12806   0.00000  Uiso   1.00
H240   H     0.88129   0.49758   0.84607   0.00000  Uiso   1.00
H241   H     0.71870   0.45215   0.02740   0.00000  Uiso   1.00
H242   H     0.81822   0.51632   0.88600   0.00000  Uiso   1.00
H243   H     0.77063   0.52894   0.88485   0.00000  Uiso   1.00
H244   H     0.87148   0.52093   0.94145   0.00000  Uiso   1.00
H245   H     0.65702   0.51071   0.84479   0.00000  Uiso   1.00
H246   H     0.62483   0.58223   0.97415   0.00000  Uiso   1.00
H247   H     0.62420   0.57505   0.05834   0.00000  Uiso   1.00
H248   H     0.70129   0.49348   0.84920   0.00000  Uiso   1.00
H249   H     0.67131   0.52339   0.05255   0.00000  Uiso   1.00
H250   H     0.71509   0.50582   0.05635   0.00000  Uiso   1.00
H251   H     0.61580   0.51680   0.03685   0.00000  Uiso   1.00
C252   C     0.76796   0.45930  -0.00219   0.00000  Uiso   1.00
C253   C     0.82444   0.46843  -0.04368   0.00000  Uiso   1.00
C254   C     0.87498   0.48141   0.88881   0.00000  Uiso   1.00
C255   C     0.74087   0.49123  -0.04449   0.00000  Uiso   1.00
C256   C     0.79646   0.47722  -0.04185   0.00000  Uiso   1.00
C257   C     0.74053   0.46642  -0.00321   0.00000  Uiso   1.00
C258   C     0.79700   0.50243   0.91775   0.00000  Uiso   1.00
C259   C     0.76946   0.50928   0.91634   0.00000  Uiso   1.00
C260   C     0.66936   0.50961   0.89132   0.00000  Uiso   1.00
C261   C     0.63616   0.53195   0.94488   0.00000  Uiso   1.00
C262   C     0.61222   0.56136   0.00942   0.00000  Uiso   1.00
C263   C     0.71173   0.49862   0.95316   0.00000  Uiso   1.00
C264   C     0.16904   0.67335   0.98677   0.00000  Uiso   1.00
C265   C     0.22842   0.71693   0.94915   0.00000  Uiso   1.00
H266   H     0.36374   0.78576   0.11605   0.00000  Uiso   1.00
C267   C     0.22276   0.71571   0.06298   0.00000  Uiso   1.00
C268   C     0.18542   0.68729   1.05041   0.00000  Uiso   1.00
N269   N     0.41753   0.86536   0.99337   0.00000  Uiso   1.00
N270   N     0.10405   0.62945   0.01926   0.00000  Uiso   1.00
O271   O     0.41943   0.84922   0.09720   0.00000  Uiso   1.00
O272   O     0.11646   0.63407   0.91458   0.00000  Uiso   1.00
H273   H     0.47253   0.88590   0.03607   0.00000  Uiso   1.00
H274   H     0.46540   0.88142   0.94991   0.00000  Uiso   1.00
H275   H     0.29781   0.73733   0.10113   0.00000  Uiso   1.00
H276   H     0.34458   0.84226   0.96763   0.00000  Uiso   1.00
H277   H     0.27914   0.79367   0.95250   0.00000  Uiso   1.00
H278   H     0.40142   0.86132   0.95000   0.00000  Uiso   1.00
H279   H     0.18011   0.67807   0.88709   0.00000  Uiso   1.00
H280   H     0.05756   0.61850   0.95575   0.00000  Uiso   1.00
H281   H     0.05344   0.62068   0.03952   0.00000  Uiso   1.00
H282   H     0.24477   0.72793   0.90940   0.00000  Uiso   1.00
H283   H     0.16980   0.67699   0.09091   0.00000  Uiso   1.00
H284   H     0.23456   0.72617   0.11223   0.00000  Uiso   1.00
H285   H     0.11398   0.63077   0.06718   0.00000  Uiso   1.00
C286   C     0.34556   0.78794   0.08042   0.00000  Uiso   1.00
C287   C     0.40035   0.84484   0.04700   0.00000  Uiso   1.00
C288   C     0.45771   0.88904   0.99327   0.00000  Uiso   1.00
C289   C     0.28369   0.76157   0.02494   0.00000  Uiso   1.00
C290   C     0.35983   0.81728   0.04135   0.00000  Uiso   1.00
C291   C     0.30785   0.76034   0.07225   0.00000  Uiso   1.00
C292   C     0.33513   0.81936  -0.00355   0.00000  Uiso   1.00
C293   C     0.29750   0.79168   0.98810   0.00000  Uiso   1.00
C294   C     0.19137   0.68825   0.93658   0.00000  Uiso   1.00
C295   C     0.12885   0.64469   0.97078   0.00000  Uiso   1.00
C296   C     0.06401   0.61134   0.00355   0.00000  Uiso   1.00
C297   C     0.24441   0.73104   1.01237   0.00000  Uiso   1.00
C298   C     0.45243   0.67424   1.00379   0.00000  Uiso   1.00
C299   C     0.45014   0.72565   0.97391   0.00000  Uiso   1.00
H300   H     0.57535   0.86988   0.06273   0.00000  Uiso   1.00
C301   C     0.50797   0.73531   0.02059   0.00000  Uiso   1.00
C302   C     0.49053   0.69817   0.02418   0.00000  Uiso   1.00
N303   N     0.55518   0.91681   0.90959   0.00000  Uiso   1.00
N304   N     0.44992   0.61930   0.04477   0.00000  Uiso   1.00
O305   O     0.59780   0.92286  -0.00887   0.00000  Uiso   1.00
O306   O     0.40236   0.61463   0.97802   0.00000  Uiso   1.00
H307   H     0.60679   0.96721  -0.09099   0.00000  Uiso   1.00
H308   H     0.57281   0.95601   0.84167   0.00000  Uiso   1.00
H309   H     0.54093   0.80558   0.07944   0.00000  Uiso   1.00
H310   H     0.51462   0.84554   0.87336   0.00000  Uiso   1.00
H311   H     0.47992   0.78179   0.89100   0.00000  Uiso   1.00
H312   H     0.52787   0.90078   0.88786   0.00000  Uiso   1.00
H313   H     0.40321   0.67096   0.96189   0.00000  Uiso   1.00
H314   H     0.40827   0.56537   1.00855   0.00000  Uiso   1.00
H315   H     0.42854   0.57051   0.08975   0.00000  Uiso   1.00
H316   H     0.43404   0.73576   0.95401   0.00000  Uiso   1.00
H317   H     0.50750   0.68859   0.04123   0.00000  Uiso   1.00
H318   H     0.53738   0.75292   0.03614   0.00000  Uiso   1.00
H319   H     0.47365   0.63569   0.07713   0.00000  Uiso   1.00
C320   C     0.55445   0.85097   0.02492   0.00000  Uiso   1.00
C321   C     0.56858   0.90244  -0.04259   0.00000  Uiso   1.00
C322   C     0.57681   0.95464  -0.10558   0.00000  Uiso   1.00
C323   C     0.50746   0.78867  -0.01328   0.00000  Uiso   1.00
C324   C     0.54718   0.86322  -0.03262   0.00000  Uiso   1.00
C325   C     0.53480   0.81414   0.03452   0.00000  Uiso   1.00
C326   C     0.52009   0.83759   0.91938   0.00000  Uiso   1.00
C327   C     0.50020   0.80084   0.92928   0.00000  Uiso   1.00
C328   C     0.43250   0.68853   0.97858   0.00000  Uiso   1.00
C329   C     0.43322   0.63458   1.00718   0.00000  Uiso   1.00
C330   C     0.43452   0.58072   0.04122   0.00000  Uiso   1.00
C331   C     0.48810   0.74944   0.99479   0.00000  Uiso   1.00
C332   C     0.45053   0.13847   1.04415   0.00000  Uiso   1.00
C333   C     0.45337   0.18808   0.99088   0.00000  Uiso   1.00
H334   H     0.56357   0.33583   0.08356   0.00000  Uiso   1.00
C335   C     0.48783   0.19945   0.09566   0.00000  Uiso   1.00
C336   C     0.47464   0.16289   1.09632   0.00000  Uiso   1.00
N337   N     0.49280   0.36836   1.03451   0.00000  Uiso   1.00
N338   N     0.44770   0.08465   0.09188   0.00000  Uiso   1.00
O339   O     0.55293   0.38482   0.04572   0.00000  Uiso   1.00
O340   O     0.40745   0.07842   1.00586   0.00000  Uiso   1.00
H341   H     0.50810   0.38721  -0.05760   0.00000  Uiso   1.00
H342   H     0.45923   0.36117   0.94937   0.00000  Uiso   1.00
H343   H     0.54537   0.27318   0.08209   0.00000  Uiso   1.00
H344   H     0.45190   0.29929   1.00760   0.00000  Uiso   1.00
H345   H     0.43377   0.23714   1.00734   0.00000  Uiso   1.00
H346   H     0.47150   0.35671   1.06392   0.00000  Uiso   1.00
H347   H     0.42247   0.13388   0.94983   0.00000  Uiso   1.00
H348   H     0.39638   0.03382   1.08978   0.00000  Uiso   1.00
H349   H     0.43034   0.04347   0.15595   0.00000  Uiso   1.00
H350   H     0.44475   0.19725   0.94956   0.00000  Uiso   1.00
H351   H     0.48251   0.15392   0.13876   0.00000  Uiso   1.00
H352   H     0.50565   0.21748   0.13702   0.00000  Uiso   1.00
H353   H     0.47423   0.10115   0.11666   0.00000  Uiso   1.00
C354   C     0.53515   0.31447   0.06696   0.00000  Uiso   1.00
C355   C     0.52030   0.36034   0.04309   0.00000  Uiso   1.00
C356   C     0.48701   0.38192   0.97456   0.00000  Uiso   1.00
C357   C     0.48818   0.25031   0.04463   0.00000  Uiso   1.00
C358   C     0.50916   0.32252   0.04591   0.00000  Uiso   1.00
C359   C     0.52472   0.27867   0.06654   0.00000  Uiso   1.00
C360   C     0.47256   0.29408   1.02472   0.00000  Uiso   1.00
C361   C     0.46222   0.25843   1.02396   0.00000  Uiso   1.00
C362   C     0.44065   0.15176   0.99106   0.00000  Uiso   1.00
C363   C     0.43377   0.09907   1.04538   0.00000  Uiso   1.00
C364   C     0.42640   0.04638   0.10382   0.00000  Uiso   1.00
C365   C     0.47679   0.21226   1.04341   0.00000  Uiso   1.00
loop_
_geom_bond_atom_site_label_1
_geom_bond_atom_site_label_2
_geom_bond_distance
_geom_bond_site_symmetry_2
_ccdc_geom_bond_type
C0     O4      1.270   .     A
C0     O5      1.265   1_554 A
C0     C356    1.492   1_554 S
Ho1    O4      2.197   .     S
Ho1    O6      2.264   .     S
Ho1    O7      2.248   .     S
Ho1    O10     2.188   .     S
Ho1    O17     2.186   .     S
Ho1    O5      2.184   1_554 S
Ho1    O15     2.227   1_554 S
C2     O12     1.279   .     A
C2     O13     1.277   1_556 A
C2     C330    1.489   1_556 S
Ho3    O11     2.234   .     S
Ho3    O12     2.173   .     S
Ho3    O14     2.252   .     S
Ho3    O15     2.223   .     S
Ho3    O16     2.324   .     S
Ho3    O7      2.208   1_556 S
Ho3    O13     2.169   1_556 S
O5     C0      1.265   1_556 A
O5     Ho1     2.184   1_556 S
O6     C8      1.197   .     D
O7     C8      1.353   .     S
O7     Ho3     2.208   1_554 S
C8     C84     1.500   .     S
C9     O14     1.198   .     D
C9     O15     1.349   .     S
C9     C92     1.493   .     S
O10    C19     1.290   .     A
O11    C19     1.295   1_556 A
O13    C2      1.277   1_554 A
O13    Ho3     2.169   1_554 S
O15    Ho1     2.227   1_556 S
O16    C18     1.323   .     A
O17    C18     1.274   1_554 A
C18    C186    1.491   .     S
C18    O17     1.274   1_556 A
C19    C262    1.498   .     S
C19    O11     1.295   1_554 A
C20    O24     1.277   .     A
C20    C194    1.495   .     S
C20    O25     1.279   1_554 A
Ho21   O24     2.170   .     S
Ho21   O26     2.235   .     S
Ho21   O30     2.221   .     S
Ho21   O25     2.181   1_554 S
Ho21   O27     2.171   1_455 S
Ho21   O35     2.158   1_554 S
Ho21   O37     2.235   1_455 S
C22    O32     1.278   .     A
C22    C254    1.495   .     S
C22    O33     1.280   1_556 A
Ho23   O32     2.172   .     S
Ho23   O34     2.233   .     S
Ho23   O36     2.213   .     S
Ho23   O27     2.152   1_556 S
Ho23   O31     2.239   1_655 S
Ho23   O33     2.178   1_556 S
Ho23   O35     2.171   1_655 S
O25    C20     1.279   1_556 A
O25    Ho21    2.181   1_556 S
O26    C28     1.206   1_455 D
O27    C28     1.364   .     S
O27    Ho21    2.171   1_655 S
O27    Ho23    2.152   1_554 S
C28    C126    1.496   .     S
C28    O26     1.206   1_655 D
C29    O35     1.366   .     S
C29    C118    1.496   .     S
C29    O34     1.208   1_455 D
O30    C39     1.310   .     A
O31    Ho23    2.239   1_455 S
O31    C39     1.314   1_556 A
O33    C22     1.280   1_554 A
O33    Ho23    2.178   1_554 S
O34    C29     1.208   1_655 D
O35    Ho21    2.158   1_556 S
O35    Ho23    2.171   1_455 S
O36    C38     1.307   .     A
O37    Ho21    2.235   1_655 S
O37    C38     1.311   1_554 A
C38    O37     1.311   1_556 A
C38    C220    1.498   1_556 S
C39    C296    1.499   .     S
C39    O31     1.314   1_554 A
C40    O44     1.267   .     A
C40    O45     1.275   1_556 A
C40    C322    1.498   1_556 S
Ho41   O44     2.206   .     S
Ho41   O46     2.265   .     S
Ho41   O50     2.282   .     S
Ho41   O45     2.200   1_556 S
Ho41   O47     2.212   1_565 S
Ho41   O55     2.172   1_556 S
Ho41   O57     2.197   1_565 S
C42    O52     1.264   .     A
C42    C364    1.494   .     S
C42    O53     1.275   1_554 A
Ho43   O52     2.201   .     S
Ho43   O54     2.259   .     S
Ho43   O56     2.282   .     S
Ho43   O47     2.165   1_554 S
Ho43   O51     2.195   1_545 S
Ho43   O53     2.205   1_554 S
Ho43   O55     2.214   1_545 S
O45    C40     1.275   1_554 A
O45    Ho41    2.200   1_554 S
O46    C48     1.189   1_565 D
O47    C48     1.334   .     S
O47    Ho41    2.212   1_545 S
O47    Ho43    2.165   1_556 S
C48    C160    1.495   .     S
C48    O46     1.189   1_545 D
C49    O54     1.188   .     D
C49    C152    1.492   .     S
C49    O55     1.338   1_545 S
O50    C59     1.313   .     A
O51    Ho43    2.195   1_565 S
O51    C59     1.298   1_554 A
O53    C42     1.275   1_556 A
O53    Ho43    2.205   1_556 S
O55    Ho41    2.172   1_554 S
O55    Ho43    2.214   1_565 S
O55    C49     1.338   1_565 S
O56    C58     1.313   .     A
O57    Ho41    2.197   1_545 S
O57    C58     1.299   1_556 A
C58    O57     1.299   1_554 A
C58    C228    1.502   1_554 S
C59    C288    1.500   .     S
C59    O51     1.298   1_556 A
C60    C64     1.406   .     A
C60    C90     1.405   .     A
C60    C91     1.483   .     S
C61    H78     1.082   .     S
C61    C90     1.398   .     A
C61    C93     1.406   .     A
H62    C82     1.084   .     S
C63    C64     1.396   .     A
C63    H80     1.083   .     S
C63    C93     1.405   .     A
C64    H79     1.082   .     S
N65    H74     1.045   .     S
N65    C83     1.373   .     S
N65    C84     1.464   .     S
N66    H81     1.044   .     S
N66    C91     1.373   .     S
N66    C92     1.462   .     S
O67    C83     1.222   .     D
O68    C91     1.219   .     D
H69    C84     1.108   .     S
H70    C84     1.111   .     S
H71    C87     1.083   .     S
H72    C88     1.081   .     S
H73    C89     1.082   .     S
H75    C90     1.083   .     S
H76    C92     1.112   .     S
H77    C92     1.112   .     S
C82    C86     1.406   .     A
C82    C87     1.397   .     A
C83    C86     1.484   .     S
C85    C87     1.406   .     A
C85    C89     1.405   .     A
C85    C93     1.485   .     S
C86    C88     1.406   .     A
C88    C89     1.397   .     A
C94    C98     1.408   .     A
C94    C124    1.407   1_455 A
C94    C125    1.490   1_455 S
C95    H112    1.083   .     S
C95    C124    1.398   .     A
C95    C127    1.404   1_655 A
H96    C116    1.083   .     S
C97    C98     1.400   .     A
C97    H114    1.083   .     S
C97    C127    1.406   .     A
C98    H113    1.080   .     S
N99    H108    1.044   .     S
N99    C117    1.439   .     S
N99    C118    1.464   .     S
N100   H115    1.043   .     S
N100   C125    1.440   .     S
N100   C126    1.465   .     S
O101   C117    1.220   1_655 D
O102   C125    1.220   1_455 D
H103   C118    1.110   .     S
H104   C118    1.110   .     S
H105   C121    1.083   .     S
H106   C122    1.082   .     S
H107   C123    1.083   .     S
H109   C124    1.083   .     S
H110   C126    1.112   .     S
H111   C126    1.111   .     S
C116   C120    1.406   .     A
C116   C121    1.398   .     A
C117   C120    1.486   .     S
C117   O101    1.220   1_455 D
C119   C121    1.405   .     A
C119   C127    1.487   .     S
C119   C123    1.406   1_455 A
C120   C122    1.406   1_455 A
C122   C123    1.399   .     A
C122   C120    1.406   1_655 A
C123   C119    1.406   1_655 A
C124   C94     1.407   1_655 A
C125   C94     1.490   1_655 S
C125   O102    1.220   1_655 D
C127   C95     1.404   1_455 A
C128   C158    1.405   .     A
C128   C159    1.481   .     S
C128   C132    1.405   1_565 A
C129   H146    1.082   .     S
C129   C158    1.398   .     A
C129   C161    1.405   .     A
H130   C150    1.083   .     S
C131   C132    1.396   .     A
C131   H148    1.083   .     S
C131   C161    1.406   1_545 A
C132   H147    1.082   .     S
C132   C128    1.405   1_545 A
N133   C151    1.373   .     S
N133   C152    1.465   .     S
N133   H142    1.045   1_545 S
N134   H149    1.045   .     S
N134   C160    1.461   .     S
N134   C159    1.436   1_545 S
O135   C151    1.222   .     D
O136   C159    1.220   .     D
H137   C152    1.111   .     S
H138   C152    1.111   1_565 S
H139   C155    1.083   .     S
H140   C156    1.082   .     S
H141   C157    1.083   .     S
H142   N133    1.045   1_565 S
H143   C158    1.083   .     S
H144   C160    1.114   1_565 S
H145   C160    1.114   .     S
C150   C154    1.405   .     A
C150   C155    1.395   .     A
C151   C154    1.486   .     S
C152   H138    1.111   1_545 S
C153   C155    1.404   .     A
C153   C157    1.406   1_545 A
C153   C161    1.485   1_545 S
C154   C156    1.409   1_545 A
C156   C157    1.400   .     A
C156   C154    1.409   1_565 A
C157   C153    1.406   1_565 A
C159   N134    1.436   1_565 S
C160   H144    1.114   1_545 S
C161   C131    1.406   1_565 A
C161   C153    1.485   1_565 S
C162   C192    1.407   .     A
C162   C193    1.483   .     S
C162   C166    1.406   1_554 A
C163   H180    1.083   .     S
C163   C192    1.398   .     A
C163   C195    1.403   .     A
H164   C184    1.083   .     S
C165   C166    1.399   .     A
C165   H182    1.083   .     S
C165   C195    1.403   1_556 A
C166   H181    1.082   .     S
C166   C162    1.406   1_556 A
N167   H176    1.045   .     S
N167   C185    1.435   1_554 S
N167   C186    1.462   1_554 S
N168   C193    1.375   .     S
N168   C194    1.466   .     S
N168   H183    1.045   1_554 S
O169   C185    1.220   .     D
O170   C193    1.221   .     D
H171   C186    1.110   .     S
H172   C186    1.110   1_554 S
H173   C189    1.083   .     S
H174   C190    1.078   .     S
H175   C191    1.083   .     S
H177   C192    1.084   .     S
H178   C194    1.111   .     S
H179   C194    1.110   1_556 S
H183   N168    1.045   1_556 S
C184   C188    1.409   .     A
C184   C189    1.398   .     A
C185   C188    1.491   .     S
C185   N167    1.435   1_556 S
C186   N167    1.462   1_556 S
C186   H172    1.110   1_556 S
C187   C189    1.402   .     A
C187   C191    1.401   1_556 A
C187   C195    1.478   1_556 S
C188   C190    1.408   1_556 A
C190   C191    1.396   .     A
C190   C188    1.408   1_554 A
C191   C187    1.401   1_554 A
C194   H179    1.110   1_554 S
C195   C165    1.403   1_554 A
C195   C187    1.478   1_554 S
C196   C226    1.407   .     A
C196   C227    1.486   .     S
C196   C200    1.407   1_556 A
C197   H214    1.083   .     S
C197   C226    1.398   .     A
C197   C229    1.404   .     A
H198   C218    1.083   .     S
C199   C200    1.398   .     A
C199   H216    1.083   .     S
C199   C229    1.405   1_554 A
C200   H215    1.081   .     S
C200   C196    1.407   1_554 A
N201   H210    1.042   .     S
N201   C219    1.438   1_556 S
N201   C220    1.463   1_556 S
N202   H217    1.044   .     S
N202   C227    1.440   1_554 S
N202   C228    1.466   1_554 S
O203   C219    1.221   .     D
O204   C227    1.221   .     D
H205   C220    1.112   .     S
H206   C220    1.111   1_556 S
H207   C223    1.083   .     S
H208   C224    1.078   .     S
H209   C225    1.083   .     S
H211   C226    1.083   .     S
H212   C228    1.112   .     S
H213   C228    1.112   1_554 S
C218   C222    1.408   .     A
C218   C223    1.396   .     A
C219   C222    1.491   .     S
C219   N201    1.438   1_554 S
C220   N201    1.463   1_554 S
C220   H206    1.111   1_554 S
C220   C38     1.498   1_554 S
C221   C223    1.403   .     A
C221   C225    1.404   1_554 A
C221   C229    1.484   1_554 S
C222   C224    1.410   1_554 A
C224   C225    1.398   .     A
C224   C222    1.410   1_556 A
C225   C221    1.404   1_556 A
C227   N202    1.440   1_556 S
C228   N202    1.466   1_556 S
C228   H213    1.112   1_556 S
C228   C58     1.502   1_556 S
C229   C199    1.405   1_556 A
C229   C221    1.484   1_556 S
C230   C234    1.408   .     A
C230   C260    1.406   .     A
C230   C261    1.484   .     S
C231   H248    1.083   .     S
C231   C260    1.397   .     A
C231   C263    1.404   .     A
H232   C252    1.083   .     S
C233   H250    1.083   .     S
C233   C234    1.398   1_554 A
C233   C263    1.402   1_554 A
C234   C233    1.398   1_556 A
C234   H249    1.081   1_556 S
N235   H244    1.045   .     S
N235   C254    1.461   .     S
N235   C253    1.434   1_556 S
N236   H251    1.044   .     S
N236   C262    1.462   .     S
N236   C261    1.434   1_554 S
O237   C253    1.219   .     D
O238   C261    1.220   .     D
H239   C254    1.111   1_554 S
H240   C254    1.111   .     S
H241   C257    1.083   .     S
H242   C258    1.082   .     S
H243   C259    1.083   .     S
H245   C260    1.083   .     S
H246   C262    1.111   1_556 S
H247   C262    1.110   .     S
H249   C234    1.081   1_554 S
C252   C256    1.407   .     A
C252   C257    1.400   .     A
C253   C256    1.482   .     S
C253   N235    1.434   1_554 S
C254   H239    1.111   1_556 S
C255   C257    1.405   .     A
C255   C259    1.403   1_554 A
C255   C263    1.480   1_554 S
C256   C258    1.405   1_554 A
C258   C259    1.396   .     A
C258   C256    1.405   1_556 A
C259   C255    1.403   1_556 A
C261   N236    1.434   1_556 S
C262   H246    1.111   1_554 S
C263   C233    1.402   1_556 A
C263   C255    1.480   1_556 S
C264   C268    1.411   .     A
C264   C294    1.408   .     A
C264   C295    1.491   .     S
C265   H282    1.083   .     S
C265   C294    1.395   .     A
C265   C297    1.401   .     A
H266   C286    1.083   .     S
C267   H284    1.083   .     S
C267   C268    1.400   1_554 A
C267   C297    1.403   1_554 A
C268   C267    1.400   1_556 A
C268   H283    1.079   1_556 S
N269   H278    1.043   .     S
N269   C288    1.464   .     S
N269   C287    1.440   1_556 S
N270   H285    1.042   .     S
N270   C296    1.464   .     S
N270   C295    1.438   1_554 S
O271   C287    1.220   .     D
O272   C295    1.221   .     D
H273   C288    1.111   1_554 S
H274   C288    1.111   .     S
H275   C291    1.083   .     S
H276   C292    1.081   1_556 S
H277   C293    1.084   .     S
H279   C294    1.082   .     S
H280   C296    1.111   1_556 S
H281   C296    1.110   .     S
H283   C268    1.079   1_554 S
C286   C290    1.407   .     A
C286   C291    1.398   .     A
C287   C290    1.485   .     S
C287   N269    1.440   1_554 S
C288   H273    1.111   1_556 S
C289   C291    1.403   .     A
C289   C293    1.404   1_554 A
C289   C297    1.479   1_554 S
C290   C292    1.406   .     A
C292   H276    1.081   1_554 S
C292   C293    1.397   1_554 A
C293   C289    1.404   1_556 A
C293   C292    1.397   1_556 A
C295   N270    1.438   1_556 S
C296   H280    1.111   1_554 S
C297   C267    1.403   1_556 A
C297   C289    1.479   1_556 S
C298   C328    1.408   .     A
C298   C329    1.488   .     S
C298   C302    1.408   1_556 A
C299   H316    1.083   .     S
C299   C328    1.398   .     A
C299   C331    1.405   .     A
H300   C320    1.083   .     S
C301   C302    1.397   .     A
C301   H318    1.083   .     S
C301   C331    1.404   1_554 A
C302   H317    1.080   .     S
C302   C298    1.408   1_554 A
N303   H312    1.043   .     S
N303   C321    1.440   1_556 S
N303   C322    1.464   1_556 S
N304   H319    1.043   .     S
N304   C330    1.461   .     S
N304   C329    1.439   1_554 S
O305   C321    1.220   .     D
O306   C329    1.221   .     D
H307   C322    1.109   .     S
H308   C322    1.109   1_556 S
H309   C325    1.083   .     S
H310   C326    1.080   .     S
H311   C327    1.083   .     S
H313   C328    1.083   .     S
H314   C330    1.107   1_556 S
H315   C330    1.110   .     S
C320   C324    1.408   .     A
C320   C325    1.399   .     A
C321   C324    1.488   .     S
C321   N303    1.440   1_554 S
C322   N303    1.464   1_554 S
C322   H308    1.109   1_554 S
C322   C40     1.498   1_554 S
C323   C325    1.405   .     A
C323   C327    1.404   1_554 A
C323   C331    1.485   1_554 S
C324   C326    1.407   1_554 A
C326   C327    1.397   .     A
C326   C324    1.407   1_556 A
C327   C323    1.404   1_556 A
C329   N304    1.439   1_556 S
C330   H314    1.107   1_554 S
C330   C2      1.489   1_554 S
C331   C301    1.404   1_556 A
C331   C323    1.485   1_556 S
C332   C336    1.409   .     A
C332   C362    1.406   .     A
C332   C363    1.487   .     S
C333   H350    1.083   .     S
C333   C362    1.395   .     A
C333   C365    1.403   .     A
H334   C354    1.083   .     S
C335   H352    1.083   .     S
C335   C336    1.400   1_554 A
C335   C365    1.405   1_554 A
C336   C335    1.400   1_556 A
C336   H351    1.081   1_556 S
N337   H346    1.045   .     S
N337   C356    1.458   .     S
N337   C355    1.430   1_556 S
N338   H353    1.044   .     S
N338   C364    1.462   .     S
N338   C363    1.437   1_554 S
O339   C355    1.219   .     D
O340   C363    1.221   .     D
H341   C356    1.112   1_554 S
H342   C356    1.111   .     S
H343   C359    1.083   .     S
H344   C360    1.082   .     S
H345   C361    1.083   .     S
H347   C362    1.082   .     S
H348   C364    1.110   1_556 S
H349   C364    1.108   .     S
H351   C336    1.081   1_554 S
C354   C358    1.406   .     A
C354   C359    1.400   .     A
C355   C358    1.481   .     S
C355   N337    1.430   1_554 S
C356   H341    1.112   1_556 S
C356   C0      1.492   1_556 S
C357   C359    1.405   .     A
C357   C361    1.405   1_554 A
C357   C365    1.483   1_554 S
C358   C360    1.405   1_554 A
C360   C361    1.394   .     A
C360   C358    1.405   1_556 A
C361   C357    1.405   1_556 A
C363   N338    1.437   1_556 S
C364   H348    1.110   1_554 S
C365   C335    1.405   1_556 A
C365   C357    1.483   1_556 S
