data_kag+N173+E59
_audit_creation_date              2025-01-21
_audit_creation_method            'Materials Studio'
_symmetry_space_group_name_H-M    'P1'
_symmetry_Int_Tables_number       1
_symmetry_cell_setting            triclinic
loop_
_symmetry_equiv_pos_as_xyz
  x,y,z
_cell_length_a                    45.1942
_cell_length_b                    45.4107
_cell_length_c                    20.8489
_cell_angle_alpha                 91.2774
_cell_angle_beta                  93.1426
_cell_angle_gamma                 123.9434
loop_
_atom_site_label
_atom_site_type_symbol
_atom_site_fract_x
_atom_site_fract_y
_atom_site_fract_z
_atom_site_U_iso_or_equiv
_atom_site_adp_type
_atom_site_occupancy
Gd0    Gd    0.50598   0.47055   0.98806   0.00000  Uiso   1.00
Gd1    Gd    0.54350   0.58477   0.04536   0.00000  Uiso   1.00
O2     O     0.54569   0.55575   0.13263   0.00000  Uiso   1.00
O3     O     0.54107   0.51729   0.06248   0.00000  Uiso   1.00
O4     O     0.46359   0.47256   0.04039   0.00000  Uiso   1.00
O5     O     0.49392   0.52838   1.02230   0.00000  Uiso   1.00
O6     O     0.54670   0.45988   0.96744   0.00000  Uiso   1.00
O7     O     0.52027   0.44274   0.05566   0.00000  Uiso   1.00
O8     O     0.50371   0.49955   0.90059   0.00000  Uiso   1.00
C9     C     0.54384   0.44514   1.02056   0.00000  Uiso   1.00
O10    O     0.50878   0.53785   0.97136   0.00000  Uiso   1.00
O11    O     0.55590   0.52686   1.01162   0.00000  Uiso   1.00
C12    C     0.47049   0.50325   0.05527   0.00000  Uiso   1.00
O13    O     0.58594   0.58278  -0.00651   0.00000  Uiso   1.00
O14    O     0.50241   0.59473   0.06583   0.00000  Uiso   1.00
O15    O     0.52863   0.61190   0.97730   0.00000  Uiso   1.00
C16    C     0.53874   0.52469   0.12124   0.00000  Uiso   1.00
C17    C     0.50481   0.60900   0.01235   0.00000  Uiso   1.00
C18    C     0.57926   0.55214  -0.02127   0.00000  Uiso   1.00
C19    C     0.51089   0.53065   0.91237   0.00000  Uiso   1.00
Gd20   Gd   -0.00587   0.55317   0.99958   0.00000  Uiso   1.00
Gd21   Gd    0.06643   0.51233   0.00796   0.00000  Uiso   1.00
O22    O     0.06188   0.52997   0.10928   0.00000  Uiso   1.00
O23    O     0.03916   0.55366   0.05564   0.00000  Uiso   1.00
O24    O     0.05331   0.57317   0.01043   0.00000  Uiso   1.00
O25    O     0.09325   0.56799  -0.03143   0.00000  Uiso   1.00
O26    O     0.94255   0.54752   0.99762   0.00000  Uiso   1.00
O27    O     0.97990   0.57052   0.08413   0.00000  Uiso   1.00
O28    O    -0.00161   0.53514   0.89891   0.00000  Uiso   1.00
C29    C     0.94952   0.56123   0.05596   0.00000  Uiso   1.00
O30    O     0.02121   0.51139   0.95199   0.00000  Uiso   1.00
O31    O     0.96694   0.49753   1.03915   0.00000  Uiso   1.00
C32    C     0.07805   0.58462  -0.02887   0.00000  Uiso   1.00
O33    O     1.00701   0.49220   0.99779   0.00000  Uiso   1.00
O34    O     0.11896   0.51983   0.00604   0.00000  Uiso   1.00
O35    O     0.08036   0.49616   0.92152   0.00000  Uiso   1.00
C36    C     0.04329   0.54308   0.10992   0.00000  Uiso   1.00
C37    C     0.11173   0.50716   0.94694   0.00000  Uiso   1.00
C38    C     0.98219   0.48088   1.03698   0.00000  Uiso   1.00
C39    C     0.01687   0.52196   0.89784   0.00000  Uiso   1.00
Gd40   Gd    0.51045   0.00092   1.02428   0.00000  Uiso   1.00
Gd41   Gd    0.55194   0.05550  -0.01346   0.00000  Uiso   1.00
O42    O     0.58477   0.06962   0.08003   0.00000  Uiso   1.00
O43    O     0.54567   0.01692   0.11526   0.00000  Uiso   1.00
O44    O     0.48318   0.02485   0.06454   0.00000  Uiso   1.00
O45    O     0.52199   0.07680   1.02783   0.00000  Uiso   1.00
O46    O     0.51028   0.95141   1.01052   0.00000  Uiso   1.00
O47    O     0.47014   0.94837   0.06279   0.00000  Uiso   1.00
O48    O     0.47716  -0.01281   0.93149   0.00000  Uiso   1.00
C49    C     0.48300   0.93194   1.04137   0.00000  Uiso   1.00
O50    O     0.51706   0.03930   0.89498   0.00000  Uiso   1.00
O51    O     0.54001   0.97952   0.98118   0.00000  Uiso   1.00
C52    C     0.49402   0.05692   0.05734   0.00000  Uiso   1.00
O53    O     0.57955   0.03194  -0.05308   0.00000  Uiso   1.00
O54    O     0.55214   0.10505  -0.00027   0.00000  Uiso   1.00
O55    O     0.59258   0.10801   0.94861   0.00000  Uiso   1.00
C56    C     0.57497   0.04751   0.12376   0.00000  Uiso   1.00
C57    C     0.57973   0.12451  -0.03041   0.00000  Uiso   1.00
C58    C     0.56818   0.99964   0.95224   0.00000  Uiso   1.00
C59    C     0.48725   0.00911   0.88735   0.00000  Uiso   1.00
C60    C     0.50897   0.53851   0.67886   0.00000  Uiso   1.00
C61    C     0.49124   0.53147   0.56392   0.00000  Uiso   1.00
H62    H     0.59811   0.56369   0.38472   0.00000  Uiso   1.00
C63    C     0.54561   0.53629   0.59967   0.00000  Uiso   1.00
C64    C     0.53942   0.53935   0.66371   0.00000  Uiso   1.00
N65    N     0.52576   0.51185   0.23381   0.00000  Uiso   1.00
N66    N     0.52208   0.54357   0.79889   0.00000  Uiso   1.00
O67    O     0.57848   0.52413   0.27672   0.00000  Uiso   1.00
O68    O     0.48103   0.55172   0.75434   0.00000  Uiso   1.00
H69    H     0.54634   0.48958   0.17414   0.00000  Uiso   1.00
H70    H     0.50051   0.47386   0.15529   0.00000  Uiso   1.00
H71    H     0.58633   0.56904   0.49581   0.00000  Uiso   1.00
H72    H     0.48516   0.48689   0.33660   0.00000  Uiso   1.00
H73    H     0.47350   0.49166   0.44750   0.00000  Uiso   1.00
H74    H     0.50370   0.51315   0.23988   0.00000  Uiso   1.00
H75    H     0.46118   0.53364   0.63715   0.00000  Uiso   1.00
H76    H     0.50623   0.56866   0.86375   0.00000  Uiso   1.00
H77    H     0.55105   0.58053   0.87804   0.00000  Uiso   1.00
H78    H     0.47261   0.52923   0.52608   0.00000  Uiso   1.00
H79    H     0.55925   0.54334   0.70054   0.00000  Uiso   1.00
H80    H     0.56915   0.53677   0.58993   0.00000  Uiso   1.00
H81    H     0.53837   0.53423   0.79373   0.00000  Uiso   1.00
C82    C     0.57076   0.54813   0.39781   0.00000  Uiso   1.00
C83    C     0.55013   0.52053   0.28521   0.00000  Uiso   1.00
C84    C     0.52739   0.49787   0.17103   0.00000  Uiso   1.00
C85    C     0.52896   0.53068   0.48072   0.00000  Uiso   1.00
C86    C     0.54256   0.52537   0.35154   0.00000  Uiso   1.00
C87    C     0.56404   0.55094   0.46154   0.00000  Uiso   1.00
C88    C     0.50743   0.50552   0.37042   0.00000  Uiso   1.00
C89    C     0.50074   0.50813   0.43423   0.00000  Uiso   1.00
C90    C     0.48484   0.53421   0.62785   0.00000  Uiso   1.00
C91    C     0.50307   0.54473   0.74622   0.00000  Uiso   1.00
C92    C     0.52317   0.55802   0.86334   0.00000  Uiso   1.00
C93    C     0.52183   0.53277   0.54895   0.00000  Uiso   1.00
C94    C     0.05669   0.55251   0.34155   0.00000  Uiso   1.00
C95    C     0.05676   0.57080   0.45203   0.00000  Uiso   1.00
H96    H     0.96416   0.46294   0.61806   0.00000  Uiso   1.00
C97    C     0.03709   0.51004   0.42467   0.00000  Uiso   1.00
C98    C     0.04420   0.51818   0.36072   0.00000  Uiso   1.00
N99    N     0.02044   0.52801   0.78250   0.00000  Uiso   1.00
N100   N     0.03657   0.53543   0.22549   0.00000  Uiso   1.00
O101   O     0.97728   0.47173   0.74061   0.00000  Uiso   1.00
O102   O     0.08040   0.59145   0.25932   0.00000  Uiso   1.00
H103   H     0.02842   0.49305   0.83432   0.00000  Uiso   1.00
H104   H     0.06333   0.53946   0.84739   0.00000  Uiso   1.00
H105   H     0.98194   0.47717   0.50853   0.00000  Uiso   1.00
H106   H     0.06243   0.56076   0.69146   0.00000  Uiso   1.00
H107   H     0.07994   0.57469   0.58228   0.00000  Uiso   1.00
H108   H     0.02880   0.55433   0.77671   0.00000  Uiso   1.00
H109   H     0.07334   0.60559   0.37492   0.00000  Uiso   1.00
H110   H     0.03217   0.57253   0.17267   0.00000  Uiso   1.00
H111   H    -0.00381   0.52705   0.15701   0.00000  Uiso   1.00
H112   H     0.06097   0.59135   0.48626   0.00000  Uiso   1.00
H113   H     0.03953   0.49743   0.32658   0.00000  Uiso   1.00
H114   H     0.02700   0.48329   0.43821   0.00000  Uiso   1.00
H115   H     0.02084   0.50862   0.23521   0.00000  Uiso   1.00
C116   C     0.98947   0.48747   0.61087   0.00000  Uiso   1.00
C117   C     0.00147   0.50192   0.72995   0.00000  Uiso   1.00
C118   C     0.03391   0.52012   0.84005   0.00000  Uiso   1.00
C119   C     0.03233   0.52699   0.53705   0.00000  Uiso   1.00
C120   C     0.01160   0.51094   0.66343   0.00000  Uiso   1.00
C121   C    -0.00026   0.49542   0.54827   0.00000  Uiso   1.00
C122   C     0.04429   0.54245   0.65211   0.00000  Uiso   1.00
C123   C     0.05448   0.55040   0.58955   0.00000  Uiso   1.00
C124   C     0.06386   0.57894   0.38829   0.00000  Uiso   1.00
C125   C     0.05936   0.56081   0.27300   0.00000  Uiso   1.00
C126   C     0.02568   0.54507   0.16673   0.00000  Uiso   1.00
C127   C     0.04256   0.53610   0.47056   0.00000  Uiso   1.00
C128   C     0.47987   0.00275   0.64631   0.00000  Uiso   1.00
C129   C     0.47616   0.00163   0.52898   0.00000  Uiso   1.00
H130   H     0.60364   0.10607   0.40724   0.00000  Uiso   1.00
C131   C     0.53405   0.03326   0.58895   0.00000  Uiso   1.00
C132   C     0.51742   0.02360   0.64676   0.00000  Uiso   1.00
N133   N     0.57793   0.04660   0.24114   0.00000  Uiso   1.00
N134   N     0.47991   0.00015   0.76919   0.00000  Uiso   1.00
O135   O     0.60323   0.10206   0.28478   0.00000  Uiso   1.00
O136   O     0.42913   0.98066   0.70344   0.00000  Uiso   1.00
H137   H     0.62005   0.08619   0.18746   0.00000  Uiso   1.00
H138   H     0.61225   0.04298   0.18218   0.00000  Uiso   1.00
H139   H     0.57491   0.08663   0.50730   0.00000  Uiso   1.00
H140   H     0.51899   0.00615   0.30998   0.00000  Uiso   1.00
H141   H     0.49218  -0.01431   0.41099   0.00000  Uiso   1.00
H142   H     0.56136   0.01930   0.24645   0.00000  Uiso   1.00
H143   H     0.43059   0.97599   0.58415   0.00000  Uiso   1.00
H144   H     0.43799  -0.02692   0.83034   0.00000  Uiso   1.00
H145   H     0.45589   0.01958   0.82446   0.00000  Uiso   1.00
H146   H     0.45945   0.99356   0.48433   0.00000  Uiso   1.00
H147   H     0.53421   0.03327   0.69142   0.00000  Uiso   1.00
H148   H     0.56299   0.04916   0.59112   0.00000  Uiso   1.00
H149   H     0.50386   0.00165   0.77339   0.00000  Uiso   1.00
C150   C     0.57912   0.07981   0.40722   0.00000  Uiso   1.00
C151   C     0.58269   0.07013   0.28989   0.00000  Uiso   1.00
C152   C     0.59875   0.05723   0.18445   0.00000  Uiso   1.00
C153   C     0.53126   0.03446   0.46771   0.00000  Uiso   1.00
C154   C     0.56424   0.05755   0.35038   0.00000  Uiso   1.00
C155   C     0.56286   0.06847   0.46494   0.00000  Uiso   1.00
C156   C     0.53221   0.02375   0.35277   0.00000  Uiso   1.00
C157   C     0.51623   0.01223   0.41079   0.00000  Uiso   1.00
C158   C     0.45956  -0.00823   0.58654   0.00000  Uiso   1.00
C159   C     0.46127  -0.00632   0.70684   0.00000  Uiso   1.00
C160   C     0.46303  -0.00016   0.82742   0.00000  Uiso   1.00
C161   C     0.51365   0.02270   0.52926   0.00000  Uiso   1.00
C162   C     0.20671   0.48622   0.96250   0.00000  Uiso   1.00
C163   C     0.25507   0.47828   0.94944   0.00000  Uiso   1.00
H164   H     0.38826   0.57059   0.10563   0.00000  Uiso   1.00
C165   C     0.25671   0.51116   0.04415   0.00000  Uiso   1.00
C166   C     0.22402   0.50538   0.02164   0.00000  Uiso   1.00
N167   N     0.42001   0.50223   0.09193   0.00000  Uiso   1.00
N168   N     0.16566   0.50626   0.94679   0.00000  Uiso   1.00
O169   O     0.43467   0.55734   0.11707   0.00000  Uiso   1.00
O170   O     0.15218   0.45454   0.90048   0.00000  Uiso   1.00
H171   H     0.47433   0.53789   0.13129   0.00000  Uiso   1.00
H172   H     0.45288   0.49252   0.15018   0.00000  Uiso   1.00
H173   H     0.33049   0.55886   0.06900   0.00000  Uiso   1.00
H174   H     0.35279   0.46503   1.03061   0.00000  Uiso   1.00
H175   H     0.29505   0.45311   0.99810   0.00000  Uiso   1.00
H176   H     0.40053   0.47582   0.07704   0.00000  Uiso   1.00
H177   H     0.20967   0.45753   0.88138   0.00000  Uiso   1.00
H178   H     0.12361   0.48418   0.87096   0.00000  Uiso   1.00
H179   H     0.15160   0.53158   0.88044   0.00000  Uiso   1.00
H180   H     0.26685   0.46815   0.91985   0.00000  Uiso   1.00
H181   H     0.21226   0.51559   0.05100   0.00000  Uiso   1.00
H182   H     0.26926   0.52575   0.09015   0.00000  Uiso   1.00
H183   H     0.18327   0.52877   0.97736   0.00000  Uiso   1.00
C184   C     0.36827   0.54477   0.08215   0.00000  Uiso   1.00
C185   C     0.41186   0.52725   0.09486   0.00000  Uiso   1.00
C186   C     0.45543   0.51003   0.11148   0.00000  Uiso   1.00
C187   C     0.30805   0.50500   1.03081   0.00000  Uiso   1.00
C188   C     0.37580   0.51884   0.07237   0.00000  Uiso   1.00
C189   C     0.33496   0.53799   0.06160   0.00000  Uiso   1.00
C190   C     0.34877   0.48587   1.04086   0.00000  Uiso   1.00
C191   C     0.31534   0.47902   1.02093   0.00000  Uiso   1.00
C192   C     0.22235   0.47231   0.92722   0.00000  Uiso   1.00
C193   C     0.17294   0.48105   0.93564   0.00000  Uiso   1.00
C194   C     0.13828   0.50705   0.90735   0.00000  Uiso   1.00
C195   C     0.27278   0.49796   1.00802   0.00000  Uiso   1.00
C196   C     0.69768   0.22401   0.95806   0.00000  Uiso   1.00
C197   C     0.75655   0.27482   0.93651   0.00000  Uiso   1.00
H198   H     0.88078   0.31689   0.10873   0.00000  Uiso   1.00
C199   C     0.74780   0.24917   0.03986   0.00000  Uiso   1.00
C200   C     0.71180   0.22375   1.01979   0.00000  Uiso   1.00
N201   N     0.93592   0.41951   1.05273   0.00000  Uiso   1.00
N202   N     0.63321   0.18447   0.97900   0.00000  Uiso   1.00
O203   O     0.93101   0.38410   0.13428   0.00000  Uiso   1.00
O204   O     0.65070   0.19124   0.87851   0.00000  Uiso   1.00
H205   H     0.97177   0.45729   0.12765   0.00000  Uiso   1.00
H206   H     0.99109   0.44239   1.07267   0.00000  Uiso   1.00
H207   H     0.81918   0.26932   0.07139   0.00000  Uiso   1.00
H208   H     0.86716   0.39307   1.01539   0.00000  Uiso   1.00
H209   H     0.80621   0.34571   0.97800   0.00000  Uiso   1.00
H210   H     0.92660   0.41896   1.00538   0.00000  Uiso   1.00
H211   H     0.71078   0.25020   0.86840   0.00000  Uiso   1.00
H212   H     0.58958   0.16480   0.90706   0.00000  Uiso   1.00
H213   H     0.58101   0.17184  -0.01314   0.00000  Uiso   1.00
H214   H     0.77340   0.29428   0.90335   0.00000  Uiso   1.00
H215   H     0.69532   0.20399   0.05277   0.00000  Uiso   1.00
H216   H     0.75778   0.24897   0.08815   0.00000  Uiso   1.00
H217   H     0.64028   0.19047   0.02836   0.00000  Uiso   1.00
C218   C     0.86469   0.32351   0.08038   0.00000  Uiso   1.00
C219   C     0.91650   0.38765   0.08681   0.00000  Uiso   1.00
C220   C     0.97158   0.44981   1.07642   0.00000  Uiso   1.00
C221   C     0.80797   0.30377   1.02127   0.00000  Uiso   1.00
C222   C     0.87913   0.35876   0.06437   0.00000  Uiso   1.00
C223   C     0.82946   0.29629   0.05904   0.00000  Uiso   1.00
C224   C     0.85743   0.36618   1.02720   0.00000  Uiso   1.00
C225   C     0.82236   0.33901   1.00579   0.00000  Uiso   1.00
C226   C     0.72072   0.24944   0.91637   0.00000  Uiso   1.00
C227   C     0.65921   0.19867   0.93613   0.00000  Uiso   1.00
C228   C     0.59486   0.16257   0.95880   0.00000  Uiso   1.00
C229   C     0.77042   0.27528   0.99876   0.00000  Uiso   1.00
C230   C     0.67501   0.53699  -0.04705   0.00000  Uiso   1.00
C231   C     0.71436   0.51669  -0.02721   0.00000  Uiso   1.00
H232   H     0.86483   0.61562   0.94245   0.00000  Uiso   1.00
C233   C     0.73926   0.57974  -0.02464   0.00000  Uiso   1.00
C234   C     0.70509   0.57237  -0.03845   0.00000  Uiso   1.00
N235   N     0.89271   0.55629   0.04834   0.00000  Uiso   1.00
N236   N     0.62976   0.55240  -0.05574   0.00000  Uiso   1.00
O237   O     0.91259   0.61161   1.01370   0.00000  Uiso   1.00
O238   O     0.61605   0.49871  -0.09071   0.00000  Uiso   1.00
H239   H     0.93893   0.59493   0.10795   0.00000  Uiso   1.00
H240   H     0.91597   0.55018   0.13267   0.00000  Uiso   1.00
H241   H     0.80446   0.60244   0.92548   0.00000  Uiso   1.00
H242   H     0.82575   0.53155   0.07783   0.00000  Uiso   1.00
H243   H     0.76628   0.51978   0.06002   0.00000  Uiso   1.00
H244   H     0.87281   0.52923   0.03923   0.00000  Uiso   1.00
H245   H     0.65764   0.48174  -0.04741   0.00000  Uiso   1.00
H246   H     0.57588   0.51795  -0.09758   0.00000  Uiso   1.00
H247   H     0.59858   0.56385   0.88514   0.00000  Uiso   1.00
H248   H     0.71743   0.49471  -0.02449   0.00000  Uiso   1.00
H249   H     0.70289   0.59466  -0.04431   0.00000  Uiso   1.00
H250   H     0.76180   0.60726  -0.01835   0.00000  Uiso   1.00
H251   H     0.64835   0.57721   0.96764   0.00000  Uiso   1.00
C252   C     0.84351   0.59474   0.96813   0.00000  Uiso   1.00
C253   C     0.88696   0.58219   1.02430   0.00000  Uiso   1.00
C254   C     0.92444   0.56654   0.09019   0.00000  Uiso   1.00
C255   C     0.78095   0.56002  -0.00868   0.00000  Uiso   1.00
C256   C     0.85037   0.57372   0.01209   0.00000  Uiso   1.00
C257   C     0.80913   0.58724  -0.04111   0.00000  Uiso   1.00
C258   C     0.82173   0.54692   0.04382   0.00000  Uiso   1.00
C259   C     0.78760   0.54024   0.03363   0.00000  Uiso   1.00
C260   C     0.68014   0.50929  -0.04075   0.00000  Uiso   1.00
C261   C     0.63853   0.52821  -0.06578   0.00000  Uiso   1.00
C262   C     0.59489   0.54559  -0.07679   0.00000  Uiso   1.00
C263   C     0.74436   0.55203  -0.01968   0.00000  Uiso   1.00
C264   C     0.18230   0.70637   0.95079   0.00000  Uiso   1.00
C265   C     0.23323   0.76821   0.96191   0.00000  Uiso   1.00
H266   H     0.35286   0.80345   0.14183   0.00000  Uiso   1.00
C267   C     0.23918   0.72224   0.00336   0.00000  Uiso   1.00
C268   C     0.20361   0.69657  -0.01799   0.00000  Uiso   1.00
N269   N     0.42952   0.87209   0.03374   0.00000  Uiso   1.00
N270   N     0.12482   0.64604  -0.04103   0.00000  Uiso   1.00
O271   O     0.41359   0.86429   0.13545   0.00000  Uiso   1.00
O272   O     0.12987   0.68477   0.88427   0.00000  Uiso   1.00
H273   H     0.47403   0.89165   0.10343   0.00000  Uiso   1.00
H274   H     0.48146   0.88453   1.02275   0.00000  Uiso   1.00
H275   H     0.28962   0.76173   0.10736   0.00000  Uiso   1.00
H276   H     0.36765   0.85899  -0.03137   0.00000  Uiso   1.00
H277   H     0.30470   0.81656   0.93294   0.00000  Uiso   1.00
H278   H     0.42164   0.86634   0.98454   0.00000  Uiso   1.00
H279   H     0.18180   0.75077   0.91645   0.00000  Uiso   1.00
H280   H     0.08976   0.60971   0.88193   0.00000  Uiso   1.00
H281   H     0.06993   0.62403  -0.06268   0.00000  Uiso   1.00
H282   H     0.24412   0.79587   0.95432   0.00000  Uiso   1.00
H283   H     0.19306   0.66894  -0.01106   0.00000  Uiso   1.00
H284   H     0.25496   0.71364   0.02639   0.00000  Uiso   1.00
H285   H     0.13443   0.64498   0.00504   0.00000  Uiso   1.00
C286   C     0.34261   0.80672   0.09633   0.00000  Uiso   1.00
C287   C     0.40424   0.85795   0.07796   0.00000  Uiso   1.00
C288   C     0.46807   0.89389   0.05205   0.00000  Uiso   1.00
C289   C     0.29222   0.78550   0.01698   0.00000  Uiso   1.00
C290   C     0.36551   0.83400   0.05730   0.00000  Uiso   1.00
C291   C     0.30645   0.78268   0.07637   0.00000  Uiso   1.00
C292   C     0.35106   0.83761  -0.00109   0.00000  Uiso   1.00
C293   C     0.31479   0.81361  -0.02105   0.00000  Uiso   1.00
C294   C     0.19757   0.74244   0.94044   0.00000  Uiso   1.00
C295   C     0.14449   0.67901   0.92839   0.00000  Uiso   1.00
C296   C     0.08927   0.61637  -0.06663   0.00000  Uiso   1.00
C297   C     0.25435   0.75840  -0.00600   0.00000  Uiso   1.00
C298   C     0.51809   0.71637   0.95161   0.00000  Uiso   1.00
C299   C     0.52022   0.76692   0.90868   0.00000  Uiso   1.00
H300   H     0.61833   0.90691   0.03338   0.00000  Uiso   1.00
C301   C     0.54688   0.77246   0.01589   0.00000  Uiso   1.00
C302   C     0.53708   0.73735   1.00857   0.00000  Uiso   1.00
N303   N     0.57052   0.94777   0.93398   0.00000  Uiso   1.00
N304   N     0.49866   0.65819   0.99615   0.00000  Uiso   1.00
O305   O     0.60484   0.95506   0.02630   0.00000  Uiso   1.00
O306   O     0.49991   0.66465   0.88956   0.00000  Uiso   1.00
H307   H     0.61605   1.00115  -0.05119   0.00000  Uiso   1.00
H308   H     0.59040   0.99014   0.87283   0.00000  Uiso   1.00
H309   H     0.60008   0.84523   0.02568   0.00000  Uiso   1.00
H310   H     0.51795   0.87582   0.93246   0.00000  Uiso   1.00
H311   H     0.49978   0.81434   0.92502   0.00000  Uiso   1.00
H312   H     0.54973   0.93023   0.89986   0.00000  Uiso   1.00
H313   H     0.49592   0.71646   0.85682   0.00000  Uiso   1.00
H314   H     0.46904   0.60831   0.94069   0.00000  Uiso   1.00
H315   H     0.45712   0.60754   0.02110   0.00000  Uiso   1.00
H316   H     0.51392   0.77795   0.86886   0.00000  Uiso   1.00
H317   H     0.54483   0.72705   0.04754   0.00000  Uiso   1.00
H318   H     0.56074   0.78761   0.06091   0.00000  Uiso   1.00
H319   H     0.50342   0.66963   0.04269   0.00000  Uiso   1.00
C320   C     0.59231   0.88691   0.00981   0.00000  Uiso   1.00
C321   C     0.58275   0.93452  -0.01655   0.00000  Uiso   1.00
C322   C     0.58841   0.98577  -0.07490   0.00000  Uiso   1.00
C323   C     0.54870   0.82490  -0.02615   0.00000  Uiso   1.00
C324   C     0.57009   0.89654  -0.01799   0.00000  Uiso   1.00
C325   C     0.58179   0.85153   0.00564   0.00000  Uiso   1.00
C326   C     0.53644   0.86975   0.95220   0.00000  Uiso   1.00
C327   C     0.52589   0.83435   0.94818   0.00000  Uiso   1.00
C328   C     0.51026   0.73178   0.90148   0.00000  Uiso   1.00
C329   C     0.50542   0.67831   0.94375   0.00000  Uiso   1.00
C330   C     0.48013   0.61949   0.99071   0.00000  Uiso   1.00
C331   C     0.53836   0.78759   0.96621   0.00000  Uiso   1.00
C332   C     0.48902   0.15908   1.02546   0.00000  Uiso   1.00
C333   C     0.47479   0.20278   1.00739   0.00000  Uiso   1.00
H334   H     0.55867   0.33571   0.16176   0.00000  Uiso   1.00
C335   C     0.53267   0.22158   0.05795   0.00000  Uiso   1.00
C336   C     0.52322   0.18655   0.05205   0.00000  Uiso   1.00
N337   N     0.54932   0.39498   0.03263   0.00000  Uiso   1.00
N338   N     0.49102   0.10874   0.07171   0.00000  Uiso   1.00
O339   O     0.55032   0.38569   0.13792   0.00000  Uiso   1.00
O340   O     0.45451   0.10041   0.98202   0.00000  Uiso   1.00
H341   H     0.57774   0.44330   0.09303   0.00000  Uiso   1.00
H342   H     0.59158   0.44650   1.01333   0.00000  Uiso   1.00
H343   H     0.54394   0.27569   0.14294   0.00000  Uiso   1.00
H344   H     0.50546   0.32646   0.97621   0.00000  Uiso   1.00
H345   H     0.49237   0.26719   0.95641   0.00000  Uiso   1.00
H346   H     0.54381   0.38472   0.98497   0.00000  Uiso   1.00
H347   H     0.43892   0.14724   0.98004   0.00000  Uiso   1.00
H348   H     0.44583   0.05508   1.05873   0.00000  Uiso   1.00
H349   H     0.47135   0.06735   0.13508   0.00000  Uiso   1.00
H350   H     0.45538   0.20829   0.99062   0.00000  Uiso   1.00
H351   H     0.54284   0.18123   0.06824   0.00000  Uiso   1.00
H352   H     0.55913   0.24214   0.07900   0.00000  Uiso   1.00
H353   H     0.51268   0.12679   0.10395   0.00000  Uiso   1.00
C354   C     0.54399   0.32100   0.11680   0.00000  Uiso   1.00
C355   C     0.54453   0.37364   0.08228   0.00000  Uiso   1.00
C356   C     0.56782   0.43365   0.04194   0.00000  Uiso   1.00
C357   C     0.51728   0.26673   0.04792   0.00000  Uiso   1.00
C358   C     0.53395   0.33641   0.07013   0.00000  Uiso   1.00
C359   C     0.53590   0.28671   0.10577   0.00000  Uiso   1.00
C360   C     0.51469   0.31616   0.01266   0.00000  Uiso   1.00
C361   C     0.50663   0.28180   0.00161   0.00000  Uiso   1.00
C362   C     0.46534   0.16777   1.00146   0.00000  Uiso   1.00
C363   C     0.47721   0.12132   1.02377   0.00000  Uiso   1.00
C364   C     0.47344   0.07092   0.08258   0.00000  Uiso   1.00
C365   C     0.50826   0.22999   0.03706   0.00000  Uiso   1.00
loop_
_geom_bond_atom_site_label_1
_geom_bond_atom_site_label_2
_geom_bond_distance
_geom_bond_site_symmetry_2
_ccdc_geom_bond_type
Gd0    O6      2.209   .     S
Gd0    O8      2.304   .     S
Gd0    O11     2.291   .     S
Gd0    O3      2.292   1_556 S
Gd0    O4      2.300   1_556 S
Gd0    O7      2.211   1_556 S
Gd1    O2      2.300   .     S
Gd1    O13     2.297   .     S
Gd1    O14     2.203   .     S
Gd1    O5      2.287   1_554 S
Gd1    O10     2.288   1_554 S
Gd1    O15     2.209   1_554 S
O2     C16     1.275   .     A
O3     C16     1.289   .     A
O3     Gd0     2.292   1_554 S
O4     C12     1.273   .     A
O4     Gd0     2.300   1_554 S
O5     Gd1     2.287   1_556 S
O5     C12     1.289   1_556 A
O6     C9      1.282   .     A
O7     Gd0     2.211   1_554 S
O7     C9      1.281   1_554 A
O8     C19     1.274   .     A
C9     O7      1.281   1_556 A
C9     C356    1.495   1_556 S
O10    C19     1.288   .     A
O10    Gd1     2.288   1_556 S
O11    C18     1.290   1_556 A
C12    C186    1.496   .     S
C12    O5      1.289   1_554 A
O13    C18     1.274   .     A
O14    C17     1.281   .     A
O15    Gd1     2.209   1_556 S
O15    C17     1.282   1_556 A
C16    C84     1.497   .     S
C17    O15     1.282   1_554 A
C17    C330    1.491   1_554 S
C18    C262    1.495   .     S
C18    O11     1.290   1_554 A
C19    C92     1.499   .     S
Gd20   O28     2.293   .     S
Gd20   O23     2.279   1_556 S
Gd20   O24     2.290   1_556 S
Gd20   O26     2.196   1_455 S
Gd20   O27     2.184   1_456 S
Gd20   O31     2.305   1_455 S
Gd21   O22     2.303   .     S
Gd21   O25     2.305   .     S
Gd21   O34     2.205   .     S
Gd21   O30     2.276   1_554 S
Gd21   O33     2.298   1_454 S
Gd21   O35     2.183   1_554 S
O22    C36     1.273   .     A
O23    C36     1.284   .     A
O23    Gd20    2.279   1_554 S
O24    C32     1.289   .     A
O24    Gd20    2.290   1_554 S
O25    C32     1.275   .     A
O26    Gd20    2.196   1_655 S
O26    C29     1.293   1_556 A
O27    C29     1.289   .     A
O27    Gd20    2.184   1_654 S
O28    C39     1.271   .     A
C29    C254    1.496   .     S
C29    O26     1.293   1_554 A
O30    C39     1.284   .     A
O30    Gd21    2.276   1_556 S
O31    C38     1.278   .     A
O31    Gd20    2.305   1_655 S
C32    C296    1.495   .     S
O33    C38     1.291   .     A
O33    Gd21    2.298   1_656 S
O34    C37     1.293   1_554 A
O35    C37     1.287   .     A
O35    Gd21    2.183   1_556 S
C36    C126    1.491   .     S
C37    C194    1.495   .     S
C37    O34     1.293   1_556 A
C38    C220    1.495   .     S
C39    C118    1.490   .     S
Gd40   O48     2.230   .     S
Gd40   O43     2.231   1_556 S
Gd40   O44     2.230   1_556 S
Gd40   O46     2.256   1_545 S
Gd40   O47     2.247   1_546 S
Gd40   O51     2.254   1_545 S
Gd41   O42     2.231   .     S
Gd41   O53     2.225   .     S
Gd41   O54     2.255   .     S
Gd41   O45     2.249   1_554 S
Gd41   O50     2.232   1_554 S
Gd41   O55     2.244   1_554 S
O42    C56     1.274   .     A
O43    C56     1.274   .     A
O43    Gd40    2.231   1_554 S
O44    C52     1.267   .     A
O44    Gd40    2.230   1_554 S
O45    Gd41    2.249   1_556 S
O45    C52     1.275   1_556 A
O46    C49     1.269   .     A
O46    Gd40    2.256   1_565 S
O47    Gd40    2.247   1_564 S
O47    C49     1.262   1_554 A
O48    C59     1.275   .     A
C49    O47     1.262   1_556 A
C49    C288    1.491   1_556 S
O50    C59     1.274   .     A
O50    Gd41    2.232   1_556 S
O51    C58     1.276   .     A
O51    Gd40    2.254   1_565 S
C52    C364    1.498   .     S
C52    O45     1.275   1_554 A
O53    C58     1.265   1_544 A
O54    C57     1.269   .     A
O55    Gd41    2.244   1_556 S
O55    C57     1.261   1_556 A
C56    C152    1.499   .     S
C57    O55     1.261   1_554 A
C57    C228    1.490   1_554 S
C58    O53     1.265   1_566 A
C58    C322    1.495   1_556 S
C59    C160    1.499   .     S
C60    C64     1.409   .     A
C60    C90     1.409   .     A
C60    C91     1.494   .     S
C61    H78     1.081   .     S
C61    C90     1.397   .     A
C61    C93     1.404   .     A
H62    C82     1.082   .     S
C63    C64     1.399   .     A
C63    H80     1.083   .     S
C63    C93     1.405   .     A
C64    H79     1.078   .     S
N65    H74     1.045   .     S
N65    C83     1.373   .     S
N65    C84     1.466   .     S
N66    H81     1.043   .     S
N66    C91     1.377   .     S
N66    C92     1.469   .     S
O67    C83     1.221   .     D
O68    C91     1.221   .     D
H69    C84     1.111   .     S
H70    C84     1.110   .     S
H71    C87     1.082   .     S
H72    C88     1.082   .     S
H73    C89     1.082   .     S
H75    C90     1.083   .     S
H76    C92     1.111   .     S
H77    C92     1.110   .     S
C82    C86     1.405   .     A
C82    C87     1.398   .     A
C83    C86     1.483   .     S
C85    C87     1.406   .     A
C85    C89     1.406   .     A
C85    C93     1.488   .     S
C86    C88     1.405   .     A
C88    C89     1.397   .     A
C94    C98     1.407   .     A
C94    C124    1.405   .     A
C94    C125    1.480   .     S
C95    H112    1.083   .     S
C95    C124    1.394   .     A
C95    C127    1.404   .     A
H96    C116    1.084   .     S
C97    C98     1.398   .     A
C97    H114    1.083   .     S
C97    C127    1.405   .     A
C98    H113    1.082   .     S
N99    H108    1.045   .     S
N99    C117    1.430   .     S
N99    C118    1.457   .     S
N100   H115    1.044   .     S
N100   C125    1.372   .     S
N100   C126    1.461   .     S
O101   C117    1.221   1_655 D
O102   C125    1.221   .     D
H103   C118    1.112   .     S
H104   C118    1.109   .     S
H105   C121    1.083   1_655 S
H106   C122    1.082   .     S
H107   C123    1.083   .     S
H109   C124    1.084   .     S
H110   C126    1.112   .     S
H111   C126    1.110   .     S
C116   C120    1.405   1_655 A
C116   C121    1.396   1_655 A
C117   C120    1.479   .     S
C117   O101    1.221   1_455 D
C119   C121    1.405   .     A
C119   C123    1.403   .     A
C119   C127    1.479   .     S
C120   C122    1.406   .     A
C120   C116    1.405   1_455 A
C121   H105    1.083   1_455 S
C121   C116    1.396   1_455 A
C122   C123    1.395   .     A
C128   C132    1.407   .     A
C128   C158    1.407   .     A
C128   C159    1.491   .     S
C129   C158    1.397   .     A
C129   C161    1.405   .     A
C129   H146    1.081   1_545 S
H130   C150    1.084   .     S
C131   C132    1.402   .     A
C131   H148    1.082   .     S
C131   C161    1.408   .     A
C132   H147    1.081   .     S
N133   H142    1.043   .     S
N133   C151    1.376   .     S
N133   C152    1.468   .     S
N134   H149    1.044   .     S
N134   C159    1.440   .     S
N134   C160    1.465   .     S
O135   C151    1.221   .     D
O136   C159    1.221   1_565 D
H137   C152    1.112   .     S
H138   C152    1.112   .     S
H139   C155    1.081   .     S
H140   C156    1.081   .     S
H141   C157    1.082   .     S
H143   C158    1.083   1_565 S
H144   C160    1.112   .     S
H145   C160    1.111   .     S
H146   C129    1.081   1_565 S
C150   C154    1.406   .     A
C150   C155    1.398   .     A
C151   C154    1.492   .     S
C153   C155    1.406   .     A
C153   C157    1.408   .     A
C153   C161    1.494   .     S
C154   C156    1.408   .     A
C156   C157    1.400   .     A
C158   H143    1.083   1_545 S
C159   O136    1.221   1_545 D
C162   C192    1.405   .     A
C162   C193    1.483   .     S
C162   C166    1.406   1_556 A
C163   H180    1.083   .     S
C163   C192    1.395   .     A
C163   C195    1.406   .     A
H164   C184    1.083   .     S
C165   C166    1.399   .     A
C165   H182    1.083   .     S
C165   C195    1.407   1_554 A
C166   H181    1.082   .     S
C166   C162    1.406   1_554 A
N167   H176    1.041   .     S
N167   C185    1.377   .     S
N167   C186    1.464   .     S
N168   H183    1.044   .     S
N168   C193    1.375   .     S
N168   C194    1.465   .     S
O169   C185    1.221   .     D
O170   C193    1.221   .     D
H171   C186    1.110   .     S
H172   C186    1.110   .     S
H173   C189    1.083   .     S
H174   C190    1.078   .     S
H175   C191    1.083   .     S
H177   C192    1.084   .     S
H178   C194    1.111   .     S
H179   C194    1.111   .     S
C184   C188    1.410   .     A
C184   C189    1.397   .     A
C185   C188    1.495   .     S
C187   C191    1.405   .     A
C187   C195    1.487   .     S
C187   C189    1.404   1_556 A
C188   C190    1.411   1_554 A
C189   C187    1.404   1_554 A
C190   C191    1.397   .     A
C190   C188    1.411   1_556 A
C195   C165    1.407   1_556 A
C196   C200    1.408   .     A
C196   C226    1.405   .     A
C196   C227    1.487   .     S
C197   H214    1.083   .     S
C197   C226    1.395   .     A
C197   C229    1.404   .     A
H198   C218    1.083   .     S
C199   H216    1.082   .     S
C199   C200    1.400   1_554 A
C199   C229    1.405   1_554 A
C200   C199    1.400   1_556 A
C200   H215    1.082   1_556 S
N201   H210    1.046   .     S
N201   C220    1.463   .     S
N201   C219    1.437   1_556 S
N202   C227    1.375   .     S
N202   C228    1.465   .     S
N202   H217    1.044   1_556 S
O203   C219    1.220   .     D
O204   C227    1.221   .     D
H205   C220    1.112   1_554 S
H206   C220    1.112   .     S
H207   C223    1.083   .     S
H208   C224    1.082   .     S
H209   C225    1.082   .     S
H211   C226    1.083   .     S
H212   C228    1.111   .     S
H213   C228    1.111   1_554 S
H215   C200    1.082   1_554 S
H217   N202    1.044   1_554 S
C218   C222    1.407   .     A
C218   C223    1.400   .     A
C219   C222    1.485   .     S
C219   N201    1.437   1_554 S
C220   H205    1.112   1_556 S
C221   C225    1.404   .     A
C221   C229    1.486   .     S
C221   C223    1.406   1_556 A
C222   C224    1.405   1_554 A
C223   C221    1.406   1_554 A
C224   C225    1.395   .     A
C224   C222    1.405   1_556 A
C228   H213    1.111   1_556 S
C228   C57     1.490   1_556 S
C229   C199    1.405   1_556 A
C230   C234    1.408   .     A
C230   C260    1.408   .     A
C230   C261    1.489   .     S
C231   H248    1.084   .     S
C231   C260    1.397   .     A
C231   C263    1.405   .     A
H232   C252    1.083   .     S
C233   C234    1.396   .     A
C233   H250    1.083   .     S
C233   C263    1.405   .     A
C234   H249    1.080   .     S
N235   H244    1.045   .     S
N235   C254    1.461   .     S
N235   C253    1.434   1_554 S
N236   C261    1.376   .     S
N236   C262    1.464   .     S
N236   H251    1.042   1_554 S
O237   C253    1.220   .     D
O238   C261    1.220   .     D
H239   C254    1.112   .     S
H240   C254    1.110   .     S
H241   C257    1.084   1_556 S
H242   C258    1.083   .     S
H243   C259    1.084   .     S
H245   C260    1.084   .     S
H246   C262    1.110   .     S
H247   C262    1.111   1_556 S
H251   N236    1.042   1_556 S
C252   C256    1.478   1_556 S
C252   C257    1.393   1_556 A
C253   N235    1.434   1_556 S
C253   C256    1.478   1_556 S
C255   C257    1.407   .     A
C255   C259    1.408   .     A
C255   C263    1.484   .     S
C256   C258    1.402   .     A
C256   C252    1.478   1_554 S
C256   C253    1.478   1_554 S
C257   H241    1.084   1_554 S
C257   C252    1.393   1_554 A
C258   C259    1.398   .     A
C262   H247    1.111   1_554 S
C264   C294    1.405   .     A
C264   C295    1.482   .     S
C264   C268    1.404   1_556 A
C265   H282    1.083   .     S
C265   C294    1.399   .     A
C265   C297    1.405   1_556 A
H266   C286    1.082   .     S
C267   C268    1.395   .     A
C267   H284    1.083   .     S
C267   C297    1.406   .     A
C268   H283    1.082   .     S
C268   C264    1.404   1_554 A
N269   C287    1.375   .     S
N269   C288    1.465   .     S
N269   H278    1.045   1_554 S
N270   H285    1.046   .     S
N270   C296    1.462   .     S
N270   C295    1.434   1_554 S
O271   C287    1.221   .     D
O272   C295    1.220   .     D
H273   C288    1.111   .     S
H274   C288    1.112   1_556 S
H275   C291    1.084   .     S
H276   C292    1.082   .     S
H277   C293    1.083   1_556 S
H278   N269    1.045   1_556 S
H279   C294    1.083   .     S
H280   C296    1.112   1_556 S
H281   C296    1.113   .     S
C286   C290    1.405   .     A
C286   C291    1.396   .     A
C287   C290    1.484   .     S
C288   H274    1.112   1_554 S
C288   C49     1.491   1_554 S
C289   C291    1.405   .     A
C289   C293    1.407   .     A
C289   C297    1.485   .     S
C290   C292    1.406   .     A
C292   C293    1.399   .     A
C293   H277    1.083   1_554 S
C295   N270    1.434   1_556 S
C296   H280    1.112   1_554 S
C297   C265    1.405   1_554 A
C298   C302    1.407   .     A
C298   C328    1.406   .     A
C298   C329    1.487   .     S
C299   H316    1.083   .     S
C299   C328    1.397   .     A
C299   C331    1.405   .     A
H300   C320    1.083   .     S
C301   H318    1.083   .     S
C301   C302    1.398   1_554 A
C301   C331    1.406   1_554 A
C302   C301    1.398   1_556 A
C302   H317    1.082   1_556 S
N303   H312    1.044   .     S
N303   C321    1.438   1_556 S
N303   C322    1.462   1_556 S
N304   C329    1.375   .     S
N304   C330    1.463   .     S
N304   H319    1.043   1_556 S
O305   C321    1.221   .     D
O306   C329    1.220   .     D
H307   C322    1.112   .     S
H308   C322    1.112   1_556 S
H309   C325    1.082   .     S
H310   C326    1.081   .     S
H311   C327    1.083   .     S
H313   C328    1.083   .     S
H314   C330    1.110   .     S
H315   C330    1.111   1_554 S
H317   C302    1.082   1_554 S
H319   N304    1.043   1_554 S
C320   C324    1.405   .     A
C320   C325    1.397   .     A
C321   C324    1.482   .     S
C321   N303    1.438   1_554 S
C322   N303    1.462   1_554 S
C322   H308    1.112   1_554 S
C322   C58     1.495   1_554 S
C323   C325    1.405   .     A
C323   C327    1.406   1_554 A
C323   C331    1.487   1_554 S
C324   C326    1.405   1_554 A
C326   C327    1.397   .     A
C326   C324    1.405   1_556 A
C327   C323    1.406   1_556 A
C330   H315    1.111   1_556 S
C330   C17     1.491   1_556 S
C331   C301    1.406   1_556 A
C331   C323    1.487   1_556 S
C332   C362    1.405   .     A
C332   C363    1.483   .     S
C332   C336    1.405   1_556 A
C333   H350    1.081   .     S
C333   C362    1.397   .     A
C333   C365    1.405   1_556 A
H334   C354    1.083   .     S
C335   C336    1.398   .     A
C335   H352    1.082   .     S
C335   C365    1.406   .     A
C336   H351    1.081   .     S
C336   C332    1.405   1_554 A
N337   C355    1.376   .     S
N337   C356    1.465   .     S
N337   H346    1.044   1_554 S
N338   H353    1.044   .     S
N338   C364    1.465   .     S
N338   C363    1.439   1_554 S
O339   C355    1.221   .     D
O340   C363    1.220   .     D
H341   C356    1.111   .     S
H342   C356    1.111   1_556 S
H343   C359    1.083   .     S
H344   C360    1.081   1_556 S
H345   C361    1.082   1_556 S
H346   N337    1.044   1_556 S
H347   C362    1.083   .     S
H348   C364    1.111   1_556 S
H349   C364    1.111   .     S
C354   C358    1.407   .     A
C354   C359    1.396   .     A
C355   C358    1.489   .     S
C356   H342    1.111   1_554 S
C356   C9      1.495   1_554 S
C357   C359    1.405   .     A
C357   C361    1.407   .     A
C357   C365    1.488   .     S
C358   C360    1.408   .     A
C360   C361    1.400   .     A
C360   H344    1.081   1_554 S
C361   H345    1.082   1_554 S
C363   N338    1.439   1_556 S
C364   H348    1.111   1_554 S
C365   C333    1.405   1_554 A
