data_kag+N205+E161
_audit_creation_date              2025-01-21
_audit_creation_method            'Materials Studio'
_symmetry_space_group_name_H-M    'P1'
_symmetry_Int_Tables_number       1
_symmetry_cell_setting            triclinic
loop_
_symmetry_equiv_pos_as_xyz
  x,y,z
_cell_length_a                    51.4526
_cell_length_b                    51.4596
_cell_length_c                    23.2940
_cell_angle_alpha                 93.0483
_cell_angle_beta                  93.4238
_cell_angle_gamma                 119.6169
loop_
_atom_site_label
_atom_site_type_symbol
_atom_site_fract_x
_atom_site_fract_y
_atom_site_fract_z
_atom_site_U_iso_or_equiv
_atom_site_adp_type
_atom_site_occupancy
Y0     Y     0.54109   0.50278   0.00626   0.00000  Uiso   1.00
Y1     Y     0.46927   0.50314   1.00329   0.00000  Uiso   1.00
C2     C     0.49989   0.56368   0.00321   0.00000  Uiso   1.00
C3     C     0.50633   0.50193   0.10960   0.00000  Uiso   1.00
C4     C     0.60110   0.52458   1.02176   0.00000  Uiso   1.00
C5     C     0.51191   0.44230   0.98118   0.00000  Uiso   1.00
C6     C     0.50366   0.50397   0.90151   0.00000  Uiso   1.00
C7     C     0.41043   0.48505   0.00801   0.00000  Uiso   1.00
O8     O     0.48389   0.54599   0.95991   0.00000  Uiso   1.00
O9     O     0.50121   0.54999   0.04546   0.00000  Uiso   1.00
O10    O     0.52998   0.51950   0.08697   0.00000  Uiso   1.00
O11    O     0.48228   0.48449   0.07755   0.00000  Uiso   1.00
O12    O     0.58812   0.52921   0.97927   0.00000  Uiso   1.00
O13    O     0.58310   0.50947   0.05701   0.00000  Uiso   1.00
O14    O     0.50977   0.45516   0.02659   0.00000  Uiso   1.00
O15    O     0.52836   0.46075   0.94788   0.00000  Uiso   1.00
O16    O     0.48026   0.48556   0.92370   0.00000  Uiso   1.00
O17    O     0.52717   0.52198   0.93431   0.00000  Uiso   1.00
O18    O     0.43105   0.50311   0.04541   0.00000  Uiso   1.00
O19    O     0.42004   0.47527   0.96868   0.00000  Uiso   1.00
Y20    Y     0.04074   0.53984   0.00202   0.00000  Uiso   1.00
Y21    Y     0.96828   0.46988   0.99691   0.00000  Uiso   1.00
C22    C     0.94142   0.50285   1.01801   0.00000  Uiso   1.00
C23    C     0.00972   0.50680   0.10341   0.00000  Uiso   1.00
C24    C     0.07696   0.59845   0.98925   0.00000  Uiso   1.00
C25    C     0.07401   0.51249   0.01399   0.00000  Uiso   1.00
C26    C     0.00025   0.50161   0.89281   0.00000  Uiso   1.00
C27    C     0.92657   0.41092  -0.01215   0.00000  Uiso   1.00
O28    O     0.95347   0.50296   0.97245   0.00000  Uiso   1.00
O29    O     0.94461   0.48684   0.05369   0.00000  Uiso   1.00
O30    O     0.01566   0.53076   0.08060   0.00000  Uiso   1.00
O31    O     1.00345   0.48336   0.07123   0.00000  Uiso   1.00
O32    O     0.07212   0.57736   0.95235   0.00000  Uiso   1.00
O33    O     0.06217   0.58923   0.03226   0.00000  Uiso   1.00
O34    O     0.07929   0.53606   0.04350   0.00000  Uiso   1.00
O35    O     0.05074   0.50233   0.97904   0.00000  Uiso   1.00
O36    O     0.99229   0.47755   0.91684   0.00000  Uiso   1.00
O37    O     0.00786   0.52594   0.92326   0.00000  Uiso   1.00
O38    O     0.95040   0.42238   0.02146   0.00000  Uiso   1.00
O39    O     0.92504   0.42968   0.95740   0.00000  Uiso   1.00
Y40    Y     0.50570   0.04246   0.00532   0.00000  Uiso   1.00
Y41    Y     0.50001   0.96550   1.00671   0.00000  Uiso   1.00
C42    C     0.43910   0.93530   0.99130   0.00000  Uiso   1.00
C43    C     0.50675   0.00904   0.11107   0.00000  Uiso   1.00
C44    C     0.48074   0.07637   0.98034   0.00000  Uiso   1.00
C45    C     0.56608   0.07849   0.02344   0.00000  Uiso   1.00
C46    C     0.50418   0.00150   0.90193   0.00000  Uiso   1.00
C47    C     0.51979   0.92607   0.02145   0.00000  Uiso   1.00
O48    O     0.45563   0.93501   0.95398   0.00000  Uiso   1.00
O49    O     0.45411   0.95247   0.03584   0.00000  Uiso   1.00
O50    O     0.49134   0.01891   0.08547   0.00000  Uiso   1.00
O51    O     0.52197   1.00039   0.08282   0.00000  Uiso   1.00
O52    O     0.49680   0.07146   0.94761   0.00000  Uiso   1.00
O53    O     0.47629   0.06240   0.02506   0.00000  Uiso   1.00
O54    O     0.54733   0.08570   0.03882   0.00000  Uiso   1.00
O55    O     0.55363   0.05187   1.00024   0.00000  Uiso   1.00
O56    O     0.51904   0.99236   0.93173   0.00000  Uiso   1.00
O57    O     0.48778   0.01005   0.92575   0.00000  Uiso   1.00
O58    O     0.51111   0.93646   0.06141   0.00000  Uiso   1.00
O59    O     0.51916   0.93688   0.97456   0.00000  Uiso   1.00
H60    H     0.46541   0.46005   0.81944   0.00000  Uiso   1.00
C61    C     0.50654   0.50223   0.17306   0.00000  Uiso   1.00
C62    C     0.52820   0.52750   0.20878   0.00000  Uiso   1.00
C63    C     0.52821   0.52828   0.26907   0.00000  Uiso   1.00
C64    C     0.50646   0.50316   0.29415   0.00000  Uiso   1.00
C65    C     0.48483   0.47752   0.25844   0.00000  Uiso   1.00
C66    C     0.48489   0.47740   0.19820   0.00000  Uiso   1.00
C67    C     0.55120   0.55596   0.30641   0.00000  Uiso   1.00
C68    C     0.46181   0.45031   0.28440   0.00000  Uiso   1.00
C69    C     0.48842   0.51245   0.38247   0.00000  Uiso   1.00
C70    C     0.48778   0.51304   0.44274   0.00000  Uiso   1.00
C71    C     0.50594   0.50470   0.47548   0.00000  Uiso   1.00
C72    C     0.52435   0.49595   0.44764   0.00000  Uiso   1.00
C73    C     0.52412   0.49558   0.38724   0.00000  Uiso   1.00
C74    C     0.46948   0.52170   0.47095   0.00000  Uiso   1.00
C75    C     0.46921   0.52208   0.53093   0.00000  Uiso   1.00
C76    C     0.48721   0.51378   0.56401   0.00000  Uiso   1.00
C77    C     0.50566   0.50508   0.53618   0.00000  Uiso   1.00
C78    C     0.52379   0.49670   0.56891   0.00000  Uiso   1.00
C79    C     0.54219   0.48817   0.54072   0.00000  Uiso   1.00
C80    C     0.54246   0.48779   0.48075   0.00000  Uiso   1.00
C81    C     0.48723   0.51390   0.62436   0.00000  Uiso   1.00
C82    C     0.52297   0.49705   0.62914   0.00000  Uiso   1.00
C83    C     0.50426   0.50549   0.71727   0.00000  Uiso   1.00
C84    C     0.54918   0.55889   0.73149   0.00000  Uiso   1.00
C85    C     0.52526   0.52991   0.81428   0.00000  Uiso   1.00
C86    C     0.45964   0.45260   0.70247   0.00000  Uiso   1.00
C87    C     0.48211   0.47975   0.80126   0.00000  Uiso   1.00
C88    C     0.48241   0.47988   0.74107   0.00000  Uiso   1.00
C89    C     0.52567   0.53075   0.75428   0.00000  Uiso   1.00
C90    C     0.50360   0.50456   0.83815   0.00000  Uiso   1.00
H91    H     0.47131   0.44405   0.67530   0.00000  Uiso   1.00
N92    N     0.50632   0.50373   0.35603   0.00000  Uiso   1.00
N93    N     0.50486   0.50552   0.65552   0.00000  Uiso   1.00
H94    H     0.44563   0.45854   0.67409   0.00000  Uiso   1.00
H95    H     0.54479   0.54686   0.18956   0.00000  Uiso   1.00
H96    H     0.46821   0.45774   0.17082   0.00000  Uiso   1.00
H97    H     0.56633   0.57381   0.28017   0.00000  Uiso   1.00
H98    H     0.53972   0.56504   0.33286   0.00000  Uiso   1.00
H99    H     0.56519   0.55030   0.33549   0.00000  Uiso   1.00
H100   H     0.44773   0.45633   0.31006   0.00000  Uiso   1.00
H101   H     0.44676   0.43198   0.25066   0.00000  Uiso   1.00
H102   H     0.47327   0.44168   0.31301   0.00000  Uiso   1.00
O103   O     0.54180   0.48696   0.35934   0.00000  Uiso   1.00
O104   O     0.47098   0.52064   0.34988   0.00000  Uiso   1.00
H105   H     0.45528   0.52818   0.44681   0.00000  Uiso   1.00
H106   H     0.55689   0.48107   0.46044   0.00000  Uiso   1.00
H107   H     0.45479   0.52882   0.55124   0.00000  Uiso   1.00
H108   H     0.57188   0.56308   0.74694   0.00000  Uiso   1.00
H109   H     0.54736   0.55761   0.68365   0.00000  Uiso   1.00
H110   H     0.54179   0.54933   0.84241   0.00000  Uiso   1.00
H111   H     0.55640   0.48170   0.56487   0.00000  Uiso   1.00
H112   H     0.44449   0.43424   0.72778   0.00000  Uiso   1.00
O113   O     0.54039   0.48884   0.66172   0.00000  Uiso   1.00
O114   O     0.46951   0.52245   0.65226   0.00000  Uiso   1.00
H115   H     0.54688   0.57828   0.74761   0.00000  Uiso   1.00
H116   H     0.01393   0.54960   0.18248   0.00000  Uiso   1.00
C117   C     0.00071   0.50140   0.82942   0.00000  Uiso   1.00
C118   C    -0.00146   0.47666   0.79645   0.00000  Uiso   1.00
C119   C    -0.00059   0.47648   0.73638   0.00000  Uiso   1.00
C120   C     0.00229   0.50139   0.70874   0.00000  Uiso   1.00
C121   C     0.00441   0.52632   0.74160   0.00000  Uiso   1.00
C122   C     0.00370   0.52614   0.80164   0.00000  Uiso   1.00
C123   C    -0.00251   0.44987   0.70203   0.00000  Uiso   1.00
C124   C     1.00736   0.55304   0.71284   0.00000  Uiso   1.00
C125   C     0.97676   0.48892   0.61196   0.00000  Uiso   1.00
C126   C     0.97707   0.48872   0.55169   0.00000  Uiso   1.00
C127   C     0.00488   0.50168   0.52810   0.00000  Uiso   1.00
C128   C     0.03182   0.51446   0.56487   0.00000  Uiso   1.00
C129   C     0.03039   0.51397   0.62486   0.00000  Uiso   1.00
C130   C     0.95034   0.47597   0.51459   0.00000  Uiso   1.00
C131   C     0.95120   0.47616   0.45480   0.00000  Uiso   1.00
C132   C     0.97882   0.48911   0.43081   0.00000  Uiso   1.00
C133   C     0.00576   0.50188   0.46759   0.00000  Uiso   1.00
C134   C     0.03359   0.51492   0.44400   0.00000  Uiso   1.00
C135   C     0.06032   0.52767   0.48108   0.00000  Uiso   1.00
C136   C     0.05944   0.52742   0.54087   0.00000  Uiso   1.00
C137   C     0.98027   0.48978   0.37085   0.00000  Uiso   1.00
C138   C     0.03391   0.51497   0.38375   0.00000  Uiso   1.00
C139   C     0.00842   0.50368   0.28717   0.00000  Uiso   1.00
C140   C     0.00314   0.45151   0.27656   0.00000  Uiso   1.00
C141   C     0.00671   0.48062   0.19216   0.00000  Uiso   1.00
C142   C     0.01313   0.55512   0.29840   0.00000  Uiso   1.00
C143   C     0.01192   0.53008   0.20182   0.00000  Uiso   1.00
C144   C     0.01121   0.52913   0.26176   0.00000  Uiso   1.00
C145   C     0.00620   0.47928   0.25202   0.00000  Uiso   1.00
C146   C     0.00959   0.50590   0.16667   0.00000  Uiso   1.00
H147   H     0.03329   0.56494   0.33024   0.00000  Uiso   1.00
N148   N     0.00316   0.50142   0.64710   0.00000  Uiso   1.00
N149   N     0.00751   0.50265   0.34866   0.00000  Uiso   1.00
H150   H     0.99274   0.54727   0.32177   0.00000  Uiso   1.00
H151   H    -0.00347   0.45761   0.81765   0.00000  Uiso   1.00
H152   H     1.00533   0.54532   0.82673   0.00000  Uiso   1.00
H153   H    -0.00438   0.43235   0.73008   0.00000  Uiso   1.00
H154   H    -0.02254   0.43966   0.66983   0.00000  Uiso   1.00
H155   H     0.01796   0.45716   0.67914   0.00000  Uiso   1.00
H156   H     0.98767   0.54590   0.68077   0.00000  Uiso   1.00
H157   H     1.00851   0.57054   0.74460   0.00000  Uiso   1.00
H158   H     0.02818   0.56321   0.69057   0.00000  Uiso   1.00
O159   O     0.05640   0.52618   0.66138   0.00000  Uiso   1.00
O160   O     0.94987   0.47657   0.63576   0.00000  Uiso   1.00
H161   H     0.92866   0.46582   0.53162   0.00000  Uiso   1.00
H162   H     0.08047   0.53745   0.56819   0.00000  Uiso   1.00
H163   H     0.93018   0.46618   0.42747   0.00000  Uiso   1.00
H164   H     0.02191   0.44810   0.26475   0.00000  Uiso   1.00
H165   H     0.00357   0.45279   0.32429   0.00000  Uiso   1.00
H166   H     1.00491   0.46179   0.16547   0.00000  Uiso   1.00
H167   H     0.08200   0.53792   0.46406   0.00000  Uiso   1.00
H168   H     0.01477   0.57310   0.27190   0.00000  Uiso   1.00
O169   O     0.06079   0.52759   0.35994   0.00000  Uiso   1.00
O170   O     0.95427   0.47764   0.33431   0.00000  Uiso   1.00
H171   H     0.98156   0.43168   0.25824   0.00000  Uiso   1.00
H172   H     0.50830   0.96172   0.82779   0.00000  Uiso   1.00
C173   C     0.50738   0.00809   0.17431   0.00000  Uiso   1.00
C174   C     0.50664   0.03065   0.20938   0.00000  Uiso   1.00
C175   C     0.50728   0.03005   0.26960   0.00000  Uiso   1.00
C176   C     0.50778   0.00597   0.29505   0.00000  Uiso   1.00
C177   C     0.50814   0.98297   0.25977   0.00000  Uiso   1.00
C178   C     0.50840   0.98449   0.19976   0.00000  Uiso   1.00
C179   C     0.50770   0.05520   0.30647   0.00000  Uiso   1.00
C180   C     0.50766   0.95661   0.28578   0.00000  Uiso   1.00
C181   C     0.48086  -0.00612   0.38071   0.00000  Uiso   1.00
C182   C     0.48018  -0.00676   0.44090   0.00000  Uiso   1.00
C183   C     0.50729   0.00356   0.47610   0.00000  Uiso   1.00
C184   C     0.53453   0.01437   0.45078   0.00000  Uiso   1.00
C185   C     0.53414   0.01489   0.39043   0.00000  Uiso   1.00
C186   C     0.45317  -0.01732   0.46666   0.00000  Uiso   1.00
C187   C     0.45305  -0.01766   0.52660   0.00000  Uiso   1.00
C188   C     0.47995  -0.00748   0.56214   0.00000  Uiso   1.00
C189   C     0.50717   0.00319   0.53679   0.00000  Uiso   1.00
C190   C     0.53429   0.01362   0.57201   0.00000  Uiso   1.00
C191   C     0.56129   1.02415   0.54625   0.00000  Uiso   1.00
C192   C     0.56142   1.02452   0.48632   0.00000  Uiso   1.00
C193   C     0.48040  -0.00760   0.62256   0.00000  Uiso   1.00
C194   C     0.53367   0.01333   0.63225   0.00000  Uiso   1.00
C195   C     0.50697   0.00284   0.71818   0.00000  Uiso   1.00
C196   C     0.50559   0.05195   0.72468   0.00000  Uiso   1.00
C197   C     0.50453   0.02504   0.81117   0.00000  Uiso   1.00
C198   C     0.50828   0.95415   0.71159   0.00000  Uiso   1.00
C199   C     0.50769   0.97962   0.80635   0.00000  Uiso   1.00
C200   C     0.50784   0.97949   0.74605   0.00000  Uiso   1.00
C201   C     0.50565   0.02595   0.75131   0.00000  Uiso   1.00
C202   C     0.50572   0.00213   0.83899   0.00000  Uiso   1.00
H203   H     0.52898   0.96297   0.68903   0.00000  Uiso   1.00
N204   N     0.50757   0.00473   0.35677   0.00000  Uiso   1.00
N205   N     0.50700   0.00278   0.65625   0.00000  Uiso   1.00
H206   H     0.48834   0.94281   0.67913   0.00000  Uiso   1.00
H207   H     0.50611   0.04904   0.18973   0.00000  Uiso   1.00
H208   H     0.50872   0.96690   0.17260   0.00000  Uiso   1.00
H209   H     0.50817   0.07276   0.28011   0.00000  Uiso   1.00
H210   H     0.48734   0.04631   0.33008   0.00000  Uiso   1.00
H211   H     0.52798   0.06587   0.33812   0.00000  Uiso   1.00
H212   H     0.48744   0.94500   0.30946   0.00000  Uiso   1.00
H213   H     0.50700   0.94009   0.25219   0.00000  Uiso   1.00
H214   H     0.52806   0.96439   0.31624   0.00000  Uiso   1.00
O215   O     0.56054   1.02579   0.36512   0.00000  Uiso   1.00
O216   O     0.45461  -0.01629   0.34575   0.00000  Uiso   1.00
H217   H     0.43204  -0.02524   0.44063   0.00000  Uiso   1.00
H218   H     0.58265   1.03285   0.46799   0.00000  Uiso   1.00
H219   H     0.43183  -0.02586   0.54496   0.00000  Uiso   1.00
H220   H     0.52466   0.07334   0.74582   0.00000  Uiso   1.00
H221   H     0.50794   0.05151   0.67770   0.00000  Uiso   1.00
H222   H     0.50327   0.04264   0.83636   0.00000  Uiso   1.00
H223   H     0.58244   1.03218   0.57231   0.00000  Uiso   1.00
H224   H     0.50778   0.93712   0.73957   0.00000  Uiso   1.00
O225   O     0.55997   0.02385   0.66724   0.00000  Uiso   1.00
O226   O     0.45406  -0.01799   0.64796   0.00000  Uiso   1.00
H227   H     0.48425   0.05163   0.73143   0.00000  Uiso   1.00
H228   H     0.12878   0.53778   0.07233   0.00000  Uiso   1.00
C229   C     0.37903   0.47801   0.00888   0.00000  Uiso   1.00
C230   C     0.35535   0.45212  -0.02191   0.00000  Uiso   1.00
C231   C     0.32566   0.44652   0.97738   0.00000  Uiso   1.00
C232   C     0.31985   0.46763   0.00659   0.00000  Uiso   1.00
C233   C     0.34376   0.49375   0.03741   0.00000  Uiso   1.00
C234   C     0.37301   0.49845   0.03892   0.00000  Uiso   1.00
C235   C     0.30038   0.41823   0.94540   0.00000  Uiso   1.00
C236   C     0.33835   0.51707   0.06733   0.00000  Uiso   1.00
C237   C     0.27253   0.45216   0.04727   0.00000  Uiso   1.00
C238   C     0.24507   0.45186   0.04810   0.00000  Uiso   1.00
C239   C     0.23562   0.46294   0.00213   0.00000  Uiso   1.00
C240   C     0.25323   0.47331   0.95554   0.00000  Uiso   1.00
C241   C     0.28059   0.47338   0.95681   0.00000  Uiso   1.00
C242   C     0.22735   0.44164   0.09439   0.00000  Uiso   1.00
C243   C     0.20097   0.44311   0.09575   0.00000  Uiso   1.00
C244   C     0.19174   0.45484   0.05083   0.00000  Uiso   1.00
C245   C     0.20892   0.46439   0.00346   0.00000  Uiso   1.00
C246   C     0.19993   0.47619   0.95815   0.00000  Uiso   1.00
C247   C     0.21718   0.48560   0.91106   0.00000  Uiso   1.00
C248   C     0.24356   0.48420   0.90979   0.00000  Uiso   1.00
C249   C     0.16630   0.45827   0.05285   0.00000  Uiso   1.00
C250   C     0.17444   0.47927   0.96214   0.00000  Uiso   1.00
C251   C     0.13579   0.47910   0.01662   0.00000  Uiso   1.00
C252   C     0.09671   0.43126  -0.04447   0.00000  Uiso   1.00
C253   C     0.08608   0.47187  -0.01168   0.00000  Uiso   1.00
C254   C     0.17466   0.52635   0.07813   0.00000  Uiso   1.00
C255   C     0.12250   0.51637   0.04909   0.00000  Uiso   1.00
C256   C     0.14354   0.50663   0.04797   0.00000  Uiso   1.00
C257   C     0.10656   0.46127  -0.01216   0.00000  Uiso   1.00
C258   C     0.09408   0.49962   0.01805   0.00000  Uiso   1.00
H259   H     0.19156   0.53221   1.04643   0.00000  Uiso   1.00
N260   N     0.28998   0.46354   0.00282   0.00000  Uiso   1.00
N261   N     0.15873   0.47113   0.00971   0.00000  Uiso   1.00
H262   H     0.17917   0.51439   0.11213   0.00000  Uiso   1.00
H263   H     0.36003   0.43633  -0.04520   0.00000  Uiso   1.00
H264   H     0.39137   0.51869   0.06203   0.00000  Uiso   1.00
H265   H     0.30859   0.40375   0.92604   0.00000  Uiso   1.00
H266   H     0.28376   0.40523  -0.02431   0.00000  Uiso   1.00
H267   H     0.28913   0.42391   0.91011   0.00000  Uiso   1.00
H268   H     0.32302   0.50711   0.10134   0.00000  Uiso   1.00
H269   H     0.35959   0.53652   0.08810   0.00000  Uiso   1.00
H270   H     0.32810   0.52553   1.03547   0.00000  Uiso   1.00
O271   O     0.29860   0.48455   0.91288   0.00000  Uiso   1.00
O272   O     0.28248   0.44212   0.09232   0.00000  Uiso   1.00
H273   H     0.23406   0.43297   0.13022   0.00000  Uiso   1.00
H274   H     0.25659   0.49214   0.87331   0.00000  Uiso   1.00
H275   H     0.18814   0.43554   0.13257   0.00000  Uiso   1.00
H276   H     0.09105   0.43193   0.90909   0.00000  Uiso   1.00
H277   H     0.11425   0.42470  -0.04088   0.00000  Uiso   1.00
H278   H     0.06404   0.45866  -0.03537   0.00000  Uiso   1.00
H279   H     0.21067   0.49459   0.87554   0.00000  Uiso   1.00
H280   H     0.17740   0.54761   0.09896   0.00000  Uiso   1.00
O281   O     0.16604   0.49178   0.91935   0.00000  Uiso   1.00
O282   O     0.14968   0.44981   0.09933   0.00000  Uiso   1.00
H283   H     0.07648   0.41368  -0.02670   0.00000  Uiso   1.00
H284   H     0.61169   0.06660   0.01112   0.00000  Uiso   1.00
C285   C     0.90212   0.37964  -0.01294   0.00000  Uiso   1.00
C286   C     0.87257   0.37252  -0.02961   0.00000  Uiso   1.00
C287   C     0.84844   0.34374  -0.02511   0.00000  Uiso   1.00
C288   C     0.85402   0.32134  -0.00498   0.00000  Uiso   1.00
C289   C     0.88390   0.32817   0.01018   0.00000  Uiso   1.00
C290   C     0.90770   0.35743   0.00669   0.00000  Uiso   1.00
C291   C     0.81681   0.33739  -0.04011   0.00000  Uiso   1.00
C292   C     0.89047   0.30449   0.03014   0.00000  Uiso   1.00
C293   C     0.81389   0.27258   0.95328   0.00000  Uiso   1.00
C294   C     0.78667   0.24604   0.95725   0.00000  Uiso   1.00
C295   C     0.77620   0.23888   0.01193   0.00000  Uiso   1.00
C296   C     0.79317   0.25807   0.06163   0.00000  Uiso   1.00
C297   C     0.81952   0.28508   0.05520   0.00000  Uiso   1.00
C298   C     0.76927   0.22706   0.90784   0.00000  Uiso   1.00
C299   C     0.74128   0.20191   0.91244   0.00000  Uiso   1.00
C300   C     0.73036   0.19488   0.96668   0.00000  Uiso   1.00
C301   C     0.74825   0.21296   0.01675   0.00000  Uiso   1.00
C302   C     0.73784   0.20568   0.07144   0.00000  Uiso   1.00
C303   C     0.75567   0.22421   0.12101   0.00000  Uiso   1.00
C304   C     0.78289   0.25028   0.11610   0.00000  Uiso   1.00
C305   C     0.70151   0.17081   0.97209   0.00000  Uiso   1.00
C306   C     0.70931   0.18061   0.07488   0.00000  Uiso   1.00
C307   C     0.66025   0.14249   0.02931   0.00000  Uiso   1.00
C308   C     0.64791   0.18459   1.04809   0.00000  Uiso   1.00
C309   C     0.60895   0.13053   0.04083   0.00000  Uiso   1.00
C310   C     0.67235   0.10069   0.01231   0.00000  Uiso   1.00
C311   C     0.61949   0.09036   0.01958   0.00000  Uiso   1.00
C312   C     0.65029   0.11142   0.02058   0.00000  Uiso   1.00
C313   C     0.63925   0.15195   0.03977   0.00000  Uiso   1.00
C314   C     0.59871   0.09984   0.02911   0.00000  Uiso   1.00
H315   H     0.68969   0.10957   0.04991   0.00000  Uiso   1.00
N316   N     0.82909   0.29201   0.00153   0.00000  Uiso   1.00
N317   N     0.69133   0.16450   0.02549   0.00000  Uiso   1.00
H318   H     0.68347   0.10860  -0.02759   0.00000  Uiso   1.00
H319   H     0.86825   0.38983  -0.04405   0.00000  Uiso   1.00
H320   H     0.93061   0.36295   0.01939   0.00000  Uiso   1.00
H321   H     0.81632   0.35781  -0.05171   0.00000  Uiso   1.00
H322   H     0.80595   0.32017   0.92239   0.00000  Uiso   1.00
H323   H     0.80357   0.32913  -0.00260   0.00000  Uiso   1.00
H324   H     0.88106   0.28515   0.99658   0.00000  Uiso   1.00
H325   H     0.91501   0.31320   0.03828   0.00000  Uiso   1.00
H326   H     0.88028   0.29666   0.07089   0.00000  Uiso   1.00
O327   O     0.83506   0.30517   0.10266   0.00000  Uiso   1.00
O328   O     0.82460   0.27974   0.90040   0.00000  Uiso   1.00
H329   H     0.77684   0.23202   0.86533   0.00000  Uiso   1.00
H330   H     0.79570   0.26446   0.15505   0.00000  Uiso   1.00
H331   H     0.72811   0.18820   0.87331   0.00000  Uiso   1.00
H332   H     0.64383   0.18988   0.09233   0.00000  Uiso   1.00
H333   H     0.67173   0.20011   1.04191   0.00000  Uiso   1.00
H334   H     0.59305   0.13807   1.04839   0.00000  Uiso   1.00
H335   H     0.74830   0.21905   0.16361   0.00000  Uiso   1.00
H336   H     0.66119   0.07580   0.00853   0.00000  Uiso   1.00
O337   O     0.69867   0.17337   0.12777   0.00000  Uiso   1.00
O338   O     0.68289   0.15447   0.92336   0.00000  Uiso   1.00
H339   H     0.63395   0.18902   1.01630   0.00000  Uiso   1.00
H340   H     0.63136   0.51423   0.10780   0.00000  Uiso   1.00
C341   C     0.92311   0.51732   1.02635   0.00000  Uiso   1.00
C342   C     0.91909   0.53331   0.98305   0.00000  Uiso   1.00
C343   C     0.89722   0.54201   0.98537   0.00000  Uiso   1.00
C344   C     0.87882   0.53417   1.03127   0.00000  Uiso   1.00
C345   C     0.88410   0.51978   0.07675   0.00000  Uiso   1.00
C346   C     0.90648   0.51186   0.07426   0.00000  Uiso   1.00
C347   C     0.89266   0.55847   0.93780   0.00000  Uiso   1.00
C348   C     0.86473   0.51127   0.12611   0.00000  Uiso   1.00
C349   C     0.82671   0.51495   0.99733   0.00000  Uiso   1.00
C350   C     0.80009   0.51628   0.99530   0.00000  Uiso   1.00
C351   C     0.80016   0.54077   1.02546   0.00000  Uiso   1.00
C352   C     0.82687   0.56372   0.05628   0.00000  Uiso   1.00
C353   C     0.85308   0.56151   0.05679   0.00000  Uiso   1.00
C354   C     0.77341   0.49356   0.96448   0.00000  Uiso   1.00
C355   C     0.74701   0.49496   0.96408   0.00000  Uiso   1.00
C356   C     0.74669   0.51906   0.99465   0.00000  Uiso   1.00
C357   C     0.77338   0.54213   1.02526   0.00000  Uiso   1.00
C358   C     0.77326   0.56638   0.05607   0.00000  Uiso   1.00
C359   C     0.80010   0.58934   0.08613   0.00000  Uiso   1.00
C360   C     0.82661   0.58803   0.08617   0.00000  Uiso   1.00
C361   C     0.72022   0.52052   0.99604   0.00000  Uiso   1.00
C362   C     0.74614   0.56681   0.05643   0.00000  Uiso   1.00
C363   C     0.69229   0.54360   1.03031   0.00000  Uiso   1.00
C364   C     0.69888   0.56838   0.93596   0.00000  Uiso   1.00
C365   C     0.65153   0.54870   0.98433   0.00000  Uiso   1.00
C366   C     0.68620   0.51920   0.12406   0.00000  Uiso   1.00
C367   C     0.64529   0.52552   0.07401   0.00000  Uiso   1.00
C368   C     0.67455   0.53008   0.07558   0.00000  Uiso   1.00
C369   C     0.68090   0.55362   0.98511   0.00000  Uiso   1.00
C370   C     0.63333   0.53392   1.02767   0.00000  Uiso   1.00
H371   H     0.70676   0.53835   0.14748   0.00000  Uiso   1.00
N372   N     0.85243   0.53724   1.02804   0.00000  Uiso   1.00
N373   N     0.72031   0.54392   1.02716   0.00000  Uiso   1.00
H374   H     0.69167   0.50220   0.10640   0.00000  Uiso   1.00
H375   H     0.93201   0.53779   0.94610   0.00000  Uiso   1.00
H376   H     0.90972   0.49980   0.10813   0.00000  Uiso   1.00
H377   H     0.90943   0.56382   0.90598   0.00000  Uiso   1.00
H378   H     0.86989   0.54454   0.91457   0.00000  Uiso   1.00
H379   H     0.89496   0.57989   0.95655   0.00000  Uiso   1.00
H380   H     0.84089   0.49600   0.10938   0.00000  Uiso   1.00
H381   H     0.87133   0.49957   0.15757   0.00000  Uiso   1.00
H382   H     0.86685   0.53172   0.14932   0.00000  Uiso   1.00
O383   O     0.87928   0.58351   0.08684   0.00000  Uiso   1.00
O384   O     0.82684   0.49092   0.96899   0.00000  Uiso   1.00
H385   H     0.77279   0.47453   0.94080   0.00000  Uiso   1.00
H386   H     0.84684   0.60603   0.11001   0.00000  Uiso   1.00
H387   H     0.72681   0.47698   0.94013   0.00000  Uiso   1.00
H388   H     0.70056   0.59062   0.93284   0.00000  Uiso   1.00
H389   H     0.72203   0.57202   0.94147   0.00000  Uiso   1.00
H390   H     0.64250   0.55547   0.94858   0.00000  Uiso   1.00
H391   H     0.80067   0.60829   0.10996   0.00000  Uiso   1.00
H392   H     0.66942   0.50872   0.15559   0.00000  Uiso   1.00
O393   O     0.74543   0.59001   0.08684   0.00000  Uiso   1.00
O394   O     0.69395   0.49806   0.96685   0.00000  Uiso   1.00
H395   H     0.68745   0.55410   0.89485   0.00000  Uiso   1.00
H396   H     0.11084   0.62075   0.90129   0.00000  Uiso   1.00
C397   C     0.40611   0.91563   0.98521   0.00000  Uiso   1.00
C398   C     0.38893   0.91623   0.02927   0.00000  Uiso   1.00
C399   C     0.35849   0.89418   0.02804   0.00000  Uiso   1.00
C400   C     0.34510   0.87122   0.98196   0.00000  Uiso   1.00
C401   C     0.36186   0.87158   0.93591   0.00000  Uiso   1.00
C402   C     0.39215   0.89385   0.93782   0.00000  Uiso   1.00
C403   C     0.34067   0.89452   0.07673   0.00000  Uiso   1.00
C404   C     0.34788   0.84746   0.88611   0.00000  Uiso   1.00
C405   C     0.29086   0.84470   0.95747   0.00000  Uiso   1.00
C406   C     0.26230   0.81910   0.95769   0.00000  Uiso   1.00
C407   C     0.25968   0.79480   0.98704   0.00000  Uiso   1.00
C408   C     0.28539   0.79647   0.01587   0.00000  Uiso   1.00
C409   C     0.31340   0.82235   0.01409   0.00000  Uiso   1.00
C410   C     0.23646   0.81706   0.92890   0.00000  Uiso   1.00
C411   C     0.20843   0.79115   0.92891   0.00000  Uiso   1.00
C412   C     0.20562   0.76670   0.95773   0.00000  Uiso   1.00
C413   C     0.23135   0.76862   0.98711   0.00000  Uiso   1.00
C414   C     0.22887   0.74428   0.01612   0.00000  Uiso   1.00
C415   C     0.25461   0.74636   0.04531   0.00000  Uiso   1.00
C416   C     0.28257   0.77217   0.04514   0.00000  Uiso   1.00
C417   C     0.17780   0.74014   0.95746   0.00000  Uiso   1.00
C418   C     0.20069   0.71825   0.01450   0.00000  Uiso   1.00
C419   C     0.14787   0.68867   0.98157   0.00000  Uiso   1.00
C420   C     0.13647   0.70418   0.07862   0.00000  Uiso   1.00
C421   C     0.10570   0.65231   0.02906   0.00000  Uiso   1.00
C422   C     0.15935   0.67374   0.88498   0.00000  Uiso   1.00
C423   C     0.11594   0.63778   0.93634   0.00000  Uiso   1.00
C424   C     0.14036   0.66676   0.93485   0.00000  Uiso   1.00
C425   C     0.12984   0.68156   0.02819   0.00000  Uiso   1.00
C426   C     0.09914   0.63014   0.98409   0.00000  Uiso   1.00
H427   H     0.18276   0.68032   0.90091   0.00000  Uiso   1.00
N428   N     0.31568   0.84572   0.98499   0.00000  Uiso   1.00
N429   N     0.17595   0.71651   0.98500   0.00000  Uiso   1.00
H430   H     0.15939   0.69247   0.86339   0.00000  Uiso   1.00
H431   H     0.39953   0.93313   0.06576   0.00000  Uiso   1.00
H432   H     0.40528   0.89329   0.90359   0.00000  Uiso   1.00
H433   H     0.35417   0.91422   0.10897   0.00000  Uiso   1.00
H434   H     0.32066   0.89554   0.05926   0.00000  Uiso   1.00
H435   H     0.33314   0.87383   0.09919   0.00000  Uiso   1.00
H436   H     0.32828   0.84773   0.86409   0.00000  Uiso   1.00
H437   H     0.36402   0.85081   0.85376   0.00000  Uiso   1.00
H438   H     0.34029   0.82512   0.90215   0.00000  Uiso   1.00
O439   O     0.33875   0.82404   0.04096   0.00000  Uiso   1.00
O440   O     0.29393   0.86856   0.92888   0.00000  Uiso   1.00
H441   H     0.23784   0.83539   0.90592   0.00000  Uiso   1.00
H442   H     0.30198   0.77292   0.06775   0.00000  Uiso   1.00
H443   H     0.18904   0.79028   0.90597   0.00000  Uiso   1.00
H444   H     0.14226   0.69649   0.11856   0.00000  Uiso   1.00
H445   H     0.15534   0.72679   0.07285   0.00000  Uiso   1.00
H446   H     0.09272   0.64662   0.06603   0.00000  Uiso   1.00
H447   H     0.25327   0.72799   0.06808   0.00000  Uiso   1.00
H448   H     0.15076   0.65409   0.85233   0.00000  Uiso   1.00
O449   O     0.19801   0.69415   0.04178   0.00000  Uiso   1.00
O450   O     0.15247   0.73774   0.92893   0.00000  Uiso   1.00
H451   H     0.11628   0.70630   0.08401   0.00000  Uiso   1.00
H452   H     0.50689   0.59769   0.91401   0.00000  Uiso   1.00
C453   C     0.52826   0.90274   0.02775   0.00000  Uiso   1.00
C454   C     0.52925   0.89219   0.08166   0.00000  Uiso   1.00
C455   C     0.53373   0.86755   0.08649   0.00000  Uiso   1.00
C456   C     0.53713   0.85319   0.03646   0.00000  Uiso   1.00
C457   C     0.53762   0.86469   0.98259   0.00000  Uiso   1.00
C458   C     0.53330   0.88942   0.97878   0.00000  Uiso   1.00
C459   C     0.53412   0.85622   0.14460   0.00000  Uiso   1.00
C460   C     0.54149   0.84991   0.92878   0.00000  Uiso   1.00
C461   C     0.50950   0.79922   0.03733   0.00000  Uiso   1.00
C462   C     0.50787   0.77114   0.03484   0.00000  Uiso   1.00
C463   C     0.53454   0.76987   0.03330   0.00000  Uiso   1.00
C464   C     0.56240   0.79663   0.03573   0.00000  Uiso   1.00
C465   C     0.56297   0.82430   0.03930   0.00000  Uiso   1.00
C466   C     0.48020   0.74438   0.03294   0.00000  Uiso   1.00
C467   C     0.47898   0.71665   0.02904   0.00000  Uiso   1.00
C468   C     0.50539   0.71508   0.02662   0.00000  Uiso   1.00
C469   C     0.53328   0.74176   0.02880   0.00000  Uiso   1.00
C470   C     0.55986   0.74036   0.02612   0.00000  Uiso   1.00
C471   C     0.58756   0.76718   0.02875   0.00000  Uiso   1.00
C472   C     0.58883   0.79500   0.03368   0.00000  Uiso   1.00
C473   C     0.50461   0.68742   0.02196   0.00000  Uiso   1.00
C474   C     0.55792   0.71206   0.02081   0.00000  Uiso   1.00
C475   C     0.52864   0.65742   0.01420   0.00000  Uiso   1.00
C476   C     0.53705   0.65992   0.12409   0.00000  Uiso   1.00
C477   C     0.52264   0.61359   0.05971   0.00000  Uiso   1.00
C478   C     0.52114   0.65556   0.90523   0.00000  Uiso   1.00
C479   C     0.51376   0.61067   0.95578   0.00000  Uiso   1.00
C480   C     0.52158   0.64104   0.95944   0.00000  Uiso   1.00
C481   C     0.52988   0.64372   0.06451   0.00000  Uiso   1.00
C482   C     0.51335   0.59659   0.00588   0.00000  Uiso   1.00
H483   H     0.54352   0.67559   0.90271   0.00000  Uiso   1.00
N484   N     0.53672   0.82506   0.03894   0.00000  Uiso   1.00
N485   N     0.53058   0.68636   0.01893   0.00000  Uiso   1.00
H486   H     0.50397   0.66265   0.90554   0.00000  Uiso   1.00
H487   H     0.52572   0.90264   0.11973   0.00000  Uiso   1.00
H488   H     0.53272   0.89758   0.93706   0.00000  Uiso   1.00
H489   H     0.53193   0.87034   0.17957   0.00000  Uiso   1.00
H490   H     0.51523   0.83292   0.14453   0.00000  Uiso   1.00
H491   H     0.55564   0.85651   0.15450   0.00000  Uiso   1.00
H492   H     0.52339   0.82604   0.92169   0.00000  Uiso   1.00
H493   H     0.54059   0.86113   0.88991   0.00000  Uiso   1.00
H494   H     0.56360   0.85099   0.93330   0.00000  Uiso   1.00
O495   O     0.58989   0.85063   0.04191   0.00000  Uiso   1.00
O496   O     0.48358   0.80074   0.03681   0.00000  Uiso   1.00
H497   H     0.45938   0.74476   0.03428   0.00000  Uiso   1.00
H498   H     0.61054   0.81521   0.03537   0.00000  Uiso   1.00
H499   H     0.45726   0.69646   0.02752   0.00000  Uiso   1.00
H500   H     0.55662   0.65977   0.14650   0.00000  Uiso   1.00
H501   H     0.54256   0.68363   0.12355   0.00000  Uiso   1.00
H502   H     0.52253   0.60292   0.09863   0.00000  Uiso   1.00
H503   H     0.60833   0.76677   0.02687   0.00000  Uiso   1.00
H504   H     0.51577   0.64000   0.86582   0.00000  Uiso   1.00
O505   O     0.58350   0.71016   0.01794   0.00000  Uiso   1.00
O506   O     0.47761   0.66122   0.02037   0.00000  Uiso   1.00
H507   H     0.51743   0.64829   0.14927   0.00000  Uiso   1.00
H508   H     0.49218   0.11043   0.89087   0.00000  Uiso   1.00
C509   C     0.49870   0.40945   0.97051   0.00000  Uiso   1.00
C510   C     0.48017   0.39042   0.00949   0.00000  Uiso   1.00
C511   C     0.47136   0.35980   0.00491   0.00000  Uiso   1.00
C512   C     0.48151   0.34812  -0.03909   0.00000  Uiso   1.00
C513   C     0.49889   0.36687   0.91982   0.00000  Uiso   1.00
C514   C     0.50708   0.39732   0.92468   0.00000  Uiso   1.00
C515   C     0.45207   0.33995   0.04809   0.00000  Uiso   1.00
C516   C     0.50988   0.35483   0.87252   0.00000  Uiso   1.00
C517   C     0.45397   0.29477   0.92784   0.00000  Uiso   1.00
C518   C     0.45036   0.26579   0.92728   0.00000  Uiso   1.00
C519   C     0.47077   0.26136   0.96261   0.00000  Uiso   1.00
C520   C     0.49435   0.28577  -0.00228   0.00000  Uiso   1.00
C521   C     0.49722   0.31429  -0.00353   0.00000  Uiso   1.00
C522   C     0.42707   0.24126   0.89216   0.00000  Uiso   1.00
C523   C     0.42409   0.21272   0.89213   0.00000  Uiso   1.00
C524   C     0.44438   0.20808   0.92712   0.00000  Uiso   1.00
C525   C     0.46778   0.23252   0.96254   0.00000  Uiso   1.00
C526   C     0.48836   0.22825  -0.00239   0.00000  Uiso   1.00
C527   C     0.51160   0.25271   0.03285   0.00000  Uiso   1.00
C528   C     0.51458   0.28116   0.03285   0.00000  Uiso   1.00
C529   C     0.44213   0.17967   0.92738   0.00000  Uiso   1.00
C530   C     0.48535   0.19960  -0.00385   0.00000  Uiso   1.00
C531   C     0.46131   0.14738   0.95932   0.00000  Uiso   1.00
C532   C     0.43329   0.13497   0.04970   0.00000  Uiso   1.00
C533   C     0.45472   0.10446   1.00937   0.00000  Uiso   1.00
C534   C     0.48819   0.15941   0.86836   0.00000  Uiso   1.00
C535   C     0.48002   0.11529   0.92216   0.00000  Uiso   1.00
C536   C     0.47573   0.13998   0.91699   0.00000  Uiso   1.00
C537   C     0.44976   0.12875   1.00455   0.00000  Uiso   1.00
C538   C     0.47066   0.09818   0.96944   0.00000  Uiso   1.00
H539   H     0.50495   0.18268   0.88616   0.00000  Uiso   1.00
N540   N     0.47721   0.31828  -0.03808   0.00000  Uiso   1.00
N541   N     0.46264   0.17606   0.96118   0.00000  Uiso   1.00
H542   H     0.46973   0.15974   0.84184   0.00000  Uiso   1.00
H543   H     0.47346   0.39966   0.04476   0.00000  Uiso   1.00
H544   H     0.52130   0.41193   0.89433   0.00000  Uiso   1.00
H545   H     0.44546   0.35234   0.07892   0.00000  Uiso   1.00
H546   H     0.43128   0.32086   0.02513   0.00000  Uiso   1.00
H547   H     0.46449   0.33109   0.07326   0.00000  Uiso   1.00
H548   H     0.49043   0.33645   0.84494   0.00000  Uiso   1.00
H549   H     0.52367   0.37249   0.84456   0.00000  Uiso   1.00
H550   H     0.52391   0.34600   0.89164   0.00000  Uiso   1.00
O551   O     0.52042   0.33840   0.02974   0.00000  Uiso   1.00
O552   O     0.43429   0.29957   0.89389   0.00000  Uiso   1.00
H553   H     0.41116   0.24407   0.86438   0.00000  Uiso   1.00
H554   H     0.53284   0.29955   0.06033   0.00000  Uiso   1.00
H555   H     0.40595   0.19437   0.86437   0.00000  Uiso   1.00
H556   H     0.44631   0.14039   0.09262   0.00000  Uiso   1.00
H557   H     0.42960   0.15392   1.04075   0.00000  Uiso   1.00
H558   H     0.44722   0.09122   1.04580   0.00000  Uiso   1.00
H559   H     0.52766   0.25000   0.06035   0.00000  Uiso   1.00
H560   H     0.49942   0.15096   0.83963   0.00000  Uiso   1.00
O561   O     0.50558   0.19525   0.02941   0.00000  Uiso   1.00
O562   O     0.41945   0.15555   0.89337   0.00000  Uiso   1.00
H563   H     0.41093   0.11476   1.05116   0.00000  Uiso   1.00
loop_
_geom_bond_atom_site_label_1
_geom_bond_atom_site_label_2
_geom_bond_distance
_geom_bond_site_symmetry_2
_ccdc_geom_bond_type
Y0     O10     2.246   .     S
Y0     O13     2.259   .     S
Y0     O14     2.266   .     S
Y0     O12     2.263   1_554 S
Y0     O15     2.266   1_554 S
Y0     O17     2.243   1_554 S
Y1     O8      2.266   .     S
Y1     O16     2.242   .     S
Y1     O19     2.273   .     S
Y1     O9      2.262   1_556 S
Y1     O11     2.244   1_556 S
Y1     O18     2.249   1_556 S
C2     O9      1.258   .     A
C2     C482    1.475   .     S
C2     O8      1.259   1_554 A
C3     O10     1.271   .     A
C3     O11     1.271   .     A
C3     C61     1.477   .     S
C4     O12     1.259   .     A
C4     C370    1.476   .     S
C4     O13     1.258   1_556 A
C5     O15     1.258   .     A
C5     C509    1.476   .     S
C5     O14     1.257   1_556 A
C6     O16     1.270   .     A
C6     O17     1.270   .     A
C6     C90     1.478   .     S
C7     O18     1.256   .     A
C7     C229    1.472   .     S
C7     O19     1.260   1_554 A
O8     C2      1.259   1_556 A
O9     Y1      2.262   1_554 S
O11    Y1      2.244   1_554 S
O12    Y0      2.263   1_556 S
O13    C4      1.258   1_554 A
O14    C5      1.257   1_554 A
O15    Y0      2.266   1_556 S
O17    Y0      2.243   1_556 S
O18    Y1      2.249   1_554 S
O19    C7      1.260   1_556 A
Y20    O30     2.238   .     S
Y20    O33     2.262   .     S
Y20    O34     2.254   .     S
Y20    O32     2.248   1_554 S
Y20    O35     2.277   1_554 S
Y20    O37     2.243   1_554 S
Y21    O28     2.267   .     S
Y21    O36     2.243   .     S
Y21    O39     2.254   .     S
Y21    O29     2.262   1_556 S
Y21    O31     2.238   1_556 S
Y21    O38     2.267   1_556 S
C22    O28     1.259   .     A
C22    C341    1.477   .     S
C22    O29     1.259   1_556 A
C23    O30     1.270   .     A
C23    C146    1.477   .     S
C23    O31     1.269   1_455 A
C24    O32     1.260   .     A
C24    C426    1.474   .     S
C24    O33     1.262   1_556 A
C25    O34     1.257   .     A
C25    C258    1.478   .     S
C25    O35     1.261   1_554 A
C26    O37     1.270   .     A
C26    C117    1.478   .     S
C26    O36     1.270   1_455 A
C27    O38     1.259   .     A
C27    C285    1.472   .     S
C27    O39     1.258   1_554 A
O29    Y21     2.262   1_554 S
O29    C22     1.259   1_554 A
O31    Y21     2.238   1_554 S
O31    C23     1.269   1_655 A
O32    Y20     2.248   1_556 S
O33    C24     1.262   1_554 A
O35    Y20     2.277   1_556 S
O35    C25     1.261   1_556 A
O36    C26     1.270   1_655 A
O37    Y20     2.243   1_556 S
O38    Y21     2.267   1_554 S
O39    C27     1.258   1_556 A
Y40    O50     2.241   .     S
Y40    O53     2.263   .     S
Y40    O54     2.248   .     S
Y40    O52     2.249   1_554 S
Y40    O55     2.278   1_554 S
Y40    O57     2.239   1_554 S
Y41    O48     2.259   .     S
Y41    O56     2.245   .     S
Y41    O59     2.260   .     S
Y41    O49     2.272   1_556 S
Y41    O51     2.249   1_556 S
Y41    O58     2.268   1_556 S
C42    O48     1.257   .     A
C42    C397    1.478   .     S
C42    O49     1.259   1_556 A
C43    O50     1.272   .     A
C43    C173    1.475   .     S
C43    O51     1.272   1_545 A
C44    O52     1.261   .     A
C44    C538    1.477   .     S
C44    O53     1.265   1_556 A
C45    O54     1.256   .     A
C45    C314    1.476   .     S
C45    O55     1.261   1_554 A
C46    O57     1.269   .     A
C46    C202    1.474   .     S
C46    O56     1.270   1_545 A
C47    O58     1.259   .     A
C47    C453    1.477   .     S
C47    O59     1.258   1_554 A
O49    Y41     2.272   1_554 S
O49    C42     1.259   1_554 A
O51    Y41     2.249   1_554 S
O51    C43     1.272   1_565 A
O52    Y40     2.249   1_556 S
O53    C44     1.265   1_554 A
O55    Y40     2.278   1_556 S
O55    C45     1.261   1_556 A
O56    C46     1.270   1_565 A
O57    Y40     2.239   1_556 S
O58    Y41     2.268   1_554 S
O59    C47     1.258   1_556 A
H60    C87     1.083   .     S
C61    C62     1.402   .     A
C61    C66     1.403   .     A
C62    C63     1.403   .     A
C62    H95     1.084   .     S
C63    C64     1.412   .     A
C63    C67     1.505   .     S
C64    C65     1.412   .     A
C64    N92     1.441   .     S
C65    C66     1.403   .     A
C65    C68     1.505   .     S
C66    H96     1.084   .     S
C67    H97     1.111   .     S
C67    H98     1.110   .     S
C67    H99     1.110   .     S
C68    H100    1.110   .     S
C68    H101    1.111   .     S
C68    H102    1.110   .     S
C69    C70     1.405   .     A
C69    N92     1.370   .     A
C69    O104    1.373   .     S
C70    C71     1.409   .     A
C70    C74     1.405   .     A
C71    C72     1.409   .     A
C71    C77     1.414   .     A
C72    C73     1.405   .     A
C72    C80     1.405   .     A
C73    N92     1.370   .     A
C73    O103    1.373   .     S
C74    C75     1.397   .     A
C74    H105    1.083   .     S
C75    C76     1.405   .     A
C75    H107    1.083   .     S
C76    C77     1.409   .     A
C76    C81     1.406   .     A
C77    C78     1.409   .     A
C78    C79     1.405   .     A
C78    C82     1.406   .     A
C79    C80     1.397   .     A
C79    H111    1.083   .     S
C80    H106    1.083   .     S
C81    N93     1.370   .     A
C81    O114    1.373   .     S
C82    N93     1.370   .     A
C82    O113    1.373   .     S
C83    C88     1.413   .     A
C83    C89     1.414   .     A
C83    N93     1.441   .     S
C84    C89     1.506   .     S
C84    H108    1.110   .     S
C84    H109    1.108   .     S
C84    H115    1.110   .     S
C85    C89     1.402   .     A
C85    C90     1.403   .     A
C85    H110    1.084   .     S
C86    C88     1.505   .     S
C86    H91     1.110   .     S
C86    H94     1.110   .     S
C86    H112    1.111   .     S
C87    C88     1.403   .     A
C87    C90     1.402   .     A
H116   C143    1.083   .     S
C117   C118    1.403   .     A
C117   C122    1.403   .     A
C118   C119    1.402   .     A
C118   H151    1.083   .     S
C119   C120    1.411   .     A
C119   C123    1.505   .     S
C120   C121    1.411   .     A
C120   N148    1.439   .     S
C121   C122    1.402   .     A
C121   C124    1.505   1_455 S
C122   H152    1.083   1_455 S
C123   H153    1.111   .     S
C123   H154    1.110   .     S
C123   H155    1.110   .     S
C124   H156    1.110   .     S
C124   H157    1.111   .     S
C124   C121    1.505   1_655 S
C124   H158    1.110   1_655 S
C125   C126    1.405   .     A
C125   O160    1.373   .     S
C125   N148    1.370   1_655 A
C126   C130    1.405   .     A
C126   C127    1.409   1_655 A
C127   C128    1.409   .     A
C127   C133    1.413   .     A
C127   C126    1.409   1_455 A
C128   C129    1.405   .     A
C128   C136    1.405   .     A
C129   N148    1.370   .     A
C129   O159    1.373   .     S
C130   C131    1.397   .     A
C130   H161    1.083   .     S
C131   C132    1.405   .     A
C131   H163    1.083   .     S
C132   C137    1.405   .     A
C132   C133    1.409   1_655 A
C133   C134    1.409   .     A
C133   C132    1.409   1_455 A
C134   C135    1.405   .     A
C134   C138    1.405   .     A
C135   C136    1.397   .     A
C135   H167    1.083   .     S
C136   H162    1.083   .     S
C137   O170    1.373   .     S
C137   N149    1.370   1_655 A
C138   N149    1.370   .     A
C138   O169    1.373   .     S
C139   C144    1.412   .     A
C139   C145    1.413   .     A
C139   N149    1.439   .     S
C140   C145    1.506   .     S
C140   H164    1.111   .     S
C140   H165    1.108   .     S
C140   H171    1.111   1_455 S
C141   C145    1.401   .     A
C141   C146    1.403   .     A
C141   H166    1.084   1_455 S
C142   C144    1.505   .     S
C142   H147    1.110   .     S
C142   H168    1.111   .     S
C142   H150    1.110   1_455 S
C143   C144    1.402   .     A
C143   C146    1.402   .     A
N148   C125    1.370   1_455 A
N149   C137    1.370   1_455 A
H150   C142    1.110   1_655 S
H152   C122    1.083   1_655 S
H158   C124    1.110   1_455 S
H166   C141    1.084   1_655 S
H171   C140    1.111   1_655 S
H172   C199    1.084   .     S
C173   C174    1.401   .     A
C173   C178    1.402   1_545 A
C174   C175    1.404   .     A
C174   H207    1.084   .     S
C175   C176    1.413   .     A
C175   C179    1.505   .     S
C176   N204    1.443   .     S
C176   C177    1.413   1_545 A
C177   C178    1.405   .     A
C177   C180    1.505   .     S
C177   C176    1.413   1_565 A
C178   H208    1.084   .     S
C178   C173    1.402   1_565 A
C179   H209    1.111   .     S
C179   H210    1.109   .     S
C179   H211    1.110   .     S
C180   H212    1.110   .     S
C180   H213    1.111   .     S
C180   H214    1.109   .     S
C181   C182    1.406   .     A
C181   N204    1.371   .     A
C181   O216    1.373   .     S
C182   C183    1.409   .     A
C182   C186    1.405   .     A
C183   C184    1.409   .     A
C183   C189    1.415   .     A
C184   C185    1.407   .     A
C184   C192    1.406   1_545 A
C185   N204    1.371   .     A
C185   O215    1.373   1_545 S
C186   C187    1.398   .     A
C186   H217    1.083   .     S
C187   C188    1.406   .     A
C187   H219    1.083   .     S
C188   C189    1.409   .     A
C188   C193    1.407   .     A
C189   C190    1.409   .     A
C190   C194    1.406   .     A
C190   C191    1.405   1_545 A
C191   C192    1.397   .     A
C191   H223    1.083   .     S
C191   C190    1.405   1_565 A
C192   H218    1.083   .     S
C192   C184    1.406   1_565 A
C193   N205    1.371   .     A
C193   O226    1.373   .     S
C194   N205    1.370   .     A
C194   O225    1.373   .     S
C195   C201    1.415   .     A
C195   N205    1.443   .     S
C195   C200    1.414   1_545 A
C196   C201    1.506   .     S
C196   H220    1.111   .     S
C196   H221    1.108   .     S
C196   H227    1.110   .     S
C197   C201    1.401   .     A
C197   C202    1.401   .     A
C197   H222    1.084   .     S
C198   C200    1.505   .     S
C198   H203    1.109   .     S
C198   H206    1.111   .     S
C198   H224    1.111   .     S
C199   C200    1.405   .     A
C199   C202    1.401   1_565 A
C200   C195    1.414   1_565 A
C202   C199    1.401   1_545 A
O215   C185    1.373   1_565 S
H228   C255    1.084   .     S
C229   C230    1.401   .     A
C229   C234    1.401   .     A
C230   H263    1.084   .     S
C230   C231    1.406   1_554 A
C231   C235    1.504   .     S
C231   C230    1.406   1_556 A
C231   C232    1.414   1_556 A
C232   C233    1.412   .     A
C232   N260    1.441   .     S
C232   C231    1.414   1_554 A
C233   C234    1.399   .     A
C233   C236    1.506   .     S
C234   H264    1.084   .     S
C235   H265    1.111   .     S
C235   H267    1.110   .     S
C235   H266    1.111   1_556 S
C236   H268    1.109   .     S
C236   H269    1.111   .     S
C236   H270    1.110   1_554 S
C237   C238    1.407   .     A
C237   N260    1.370   .     A
C237   O272    1.373   .     S
C238   C239    1.409   .     A
C238   C242    1.405   .     A
C239   C245    1.414   .     A
C239   C240    1.409   1_554 A
C240   C241    1.404   .     A
C240   C248    1.405   .     A
C240   C239    1.409   1_556 A
C241   O271    1.373   .     S
C241   N260    1.370   1_556 A
C242   C243    1.398   .     A
C242   H273    1.083   .     S
C243   C244    1.406   .     A
C243   H275    1.083   .     S
C244   C245    1.409   .     A
C244   C249    1.408   .     A
C245   C246    1.408   1_554 A
C246   C247    1.405   .     A
C246   C250    1.404   .     A
C246   C245    1.408   1_556 A
C247   C248    1.396   .     A
C247   H279    1.083   .     S
C248   H274    1.083   .     S
C249   N261    1.371   .     A
C249   O282    1.373   .     S
C250   O281    1.374   .     S
C250   N261    1.371   1_556 A
C251   C256    1.413   .     A
C251   C257    1.416   .     A
C251   N261    1.442   .     S
C252   C257    1.505   .     S
C252   H277    1.109   .     S
C252   H283    1.111   .     S
C252   H276    1.110   1_554 S
C253   C257    1.407   .     A
C253   C258    1.403   .     A
C253   H278    1.084   .     S
C254   C256    1.507   .     S
C254   H262    1.110   .     S
C254   H280    1.111   .     S
C254   H259    1.111   1_554 S
C255   C256    1.401   .     A
C255   C258    1.402   .     A
H259   C254    1.111   1_556 S
N260   C241    1.370   1_554 A
N261   C250    1.371   1_554 A
H266   C235    1.111   1_554 S
H270   C236    1.110   1_556 S
H276   C252    1.110   1_556 S
H284   C311    1.084   .     S
C285   C286    1.400   .     A
C285   C290    1.401   .     A
C286   C287    1.400   .     A
C286   H319    1.084   .     S
C287   C288    1.414   .     A
C287   C291    1.507   .     S
C288   C289    1.414   .     A
C288   N316    1.442   .     S
C289   C290    1.406   .     A
C289   C292    1.505   .     S
C290   H320    1.084   .     S
C291   H321    1.111   .     S
C291   H323    1.110   .     S
C291   H322    1.109   1_554 S
C292   H325    1.111   .     S
C292   H326    1.109   .     S
C292   H324    1.110   1_554 S
C293   C294    1.405   .     A
C293   O328    1.373   .     S
C293   N316    1.370   1_556 A
C294   C298    1.405   .     A
C294   C295    1.408   1_556 A
C295   C296    1.408   .     A
C295   C301    1.414   .     A
C295   C294    1.408   1_554 A
C296   C297    1.406   .     A
C296   C304    1.405   .     A
C297   N316    1.371   .     A
C297   O327    1.373   .     S
C298   C299    1.397   .     A
C298   H329    1.083   .     S
C299   C300    1.406   .     A
C299   H331    1.083   .     S
C300   C305    1.406   .     A
C300   C301    1.408   1_556 A
C301   C302    1.409   .     A
C301   C300    1.408   1_554 A
C302   C303    1.406   .     A
C302   C306    1.407   .     A
C303   C304    1.398   .     A
C303   H335    1.083   .     S
C304   H330    1.083   .     S
C305   O338    1.373   .     S
C305   N317    1.371   1_556 A
C306   N317    1.371   .     A
C306   O337    1.373   .     S
C307   C312    1.416   .     A
C307   C313    1.415   .     A
C307   N317    1.444   .     S
C308   H333    1.107   .     S
C308   H339    1.110   .     S
C308   C313    1.507   1_556 S
C308   H332    1.110   1_556 S
C309   C313    1.398   .     A
C309   C314    1.400   .     A
C309   H334    1.084   1_554 S
C310   C312    1.505   .     S
C310   H315    1.110   .     S
C310   H318    1.109   .     S
C310   H336    1.111   .     S
C311   C312    1.408   .     A
C311   C314    1.401   .     A
C313   C308    1.507   1_554 S
N316   C293    1.370   1_554 A
N317   C305    1.371   1_554 A
H322   C291    1.109   1_556 S
H324   C292    1.110   1_556 S
H332   C308    1.110   1_554 S
H334   C309    1.084   1_556 S
H340   C367    1.084   .     S
C341   C342    1.403   .     A
C341   C346    1.402   1_556 A
C342   C343    1.404   .     A
C342   H375    1.083   .     S
C343   C344    1.411   .     A
C343   C347    1.505   .     S
C344   N372    1.441   .     S
C344   C345    1.411   1_556 A
C345   C346    1.402   .     A
C345   C348    1.505   .     S
C345   C344    1.411   1_554 A
C346   H376    1.083   .     S
C346   C341    1.402   1_554 A
C347   H377    1.111   .     S
C347   H378    1.110   .     S
C347   H379    1.111   .     S
C348   H380    1.110   .     S
C348   H381    1.111   .     S
C348   H382    1.110   .     S
C349   C350    1.403   .     A
C349   N372    1.371   .     A
C349   O384    1.374   .     S
C350   C351    1.408   .     A
C350   C354    1.405   .     A
C351   C357    1.414   .     A
C351   C352    1.409   1_556 A
C352   C353    1.408   .     A
C352   C360    1.406   .     A
C352   C351    1.409   1_554 A
C353   O383    1.373   .     S
C353   N372    1.370   1_554 A
C354   C355    1.395   .     A
C354   H385    1.083   .     S
C355   C356    1.405   .     A
C355   H387    1.083   .     S
C356   C357    1.409   .     A
C356   C361    1.403   .     A
C357   C358    1.409   1_556 A
C358   C359    1.406   .     A
C358   C362    1.407   .     A
C358   C357    1.409   1_554 A
C359   C360    1.399   .     A
C359   H391    1.083   .     S
C360   H386    1.083   .     S
C361   N373    1.370   .     A
C361   O394    1.374   .     S
C362   O393    1.373   .     S
C362   N373    1.370   1_554 A
C363   C369    1.414   .     A
C363   N373    1.440   .     S
C363   C368    1.412   1_556 A
C364   C369    1.506   .     S
C364   H388    1.111   .     S
C364   H389    1.109   .     S
C364   H395    1.111   .     S
C365   C369    1.403   .     A
C365   C370    1.402   .     A
C365   H390    1.084   .     S
C366   C368    1.506   .     S
C366   H371    1.110   .     S
C366   H374    1.110   .     S
C366   H392    1.111   .     S
C367   C368    1.402   .     A
C367   C370    1.402   1_554 A
C368   C363    1.412   1_554 A
C370   C367    1.402   1_556 A
N372   C353    1.370   1_556 A
N373   C362    1.370   1_556 A
H396   C423    1.084   .     S
C397   C402    1.403   .     A
C397   C398    1.403   1_556 A
C398   C399    1.405   .     A
C398   H431    1.083   .     S
C398   C397    1.403   1_554 A
C399   C403    1.505   .     S
C399   C400    1.412   1_554 A
C400   C401    1.411   .     A
C400   N428    1.441   .     S
C400   C399    1.412   1_556 A
C401   C402    1.402   .     A
C401   C404    1.506   .     S
C402   H432    1.083   .     S
C403   H433    1.111   .     S
C403   H434    1.111   .     S
C403   H435    1.111   .     S
C404   H436    1.110   .     S
C404   H437    1.111   .     S
C404   H438    1.111   .     S
C405   C406    1.408   .     A
C405   N428    1.370   .     A
C405   O440    1.372   .     S
C406   C407    1.409   .     A
C406   C410    1.406   .     A
C407   C413    1.414   .     A
C407   C408    1.408   1_556 A
C408   C409    1.403   .     A
C408   C416    1.405   .     A
C408   C407    1.408   1_554 A
C409   O439    1.373   .     S
C409   N428    1.370   1_554 A
C410   C411    1.399   .     A
C410   H441    1.083   .     S
C411   C412    1.406   .     A
C411   H443    1.083   .     S
C412   C413    1.409   .     A
C412   C417    1.408   .     A
C413   C414    1.408   1_556 A
C414   C415    1.404   .     A
C414   C418    1.403   .     A
C414   C413    1.408   1_554 A
C415   C416    1.395   .     A
C415   H447    1.083   .     S
C416   H442    1.083   .     S
C417   N429    1.370   .     A
C417   O450    1.372   .     S
C418   O449    1.373   .     S
C418   N429    1.370   1_554 A
C419   C424    1.412   .     A
C419   N429    1.440   .     S
C419   C425    1.414   1_556 A
C420   C425    1.505   .     S
C420   H444    1.111   .     S
C420   H445    1.109   .     S
C420   H451    1.111   .     S
C421   C425    1.403   .     A
C421   H446    1.084   .     S
C421   C426    1.401   1_554 A
C422   C424    1.505   .     S
C422   H427    1.110   .     S
C422   H430    1.110   .     S
C422   H448    1.111   .     S
C423   C424    1.401   .     A
C423   C426    1.401   .     A
C425   C419    1.414   1_554 A
C426   C421    1.401   1_556 A
N428   C409    1.370   1_556 A
N429   C418    1.370   1_556 A
H452   C479    1.084   .     S
C453   C454    1.402   .     A
C453   C458    1.402   1_554 A
C454   C455    1.405   .     A
C454   H487    1.084   .     S
C455   C456    1.413   .     A
C455   C459    1.505   .     S
C456   N484    1.442   .     S
C456   C457    1.412   1_554 A
C457   C458    1.402   .     A
C457   C460    1.506   .     S
C457   C456    1.412   1_556 A
C458   H488    1.084   .     S
C458   C453    1.402   1_556 A
C459   H489    1.110   .     S
C459   H490    1.109   .     S
C459   H491    1.110   .     S
C460   H492    1.110   .     S
C460   H493    1.110   .     S
C460   H494    1.110   .     S
C461   C462    1.403   .     A
C461   N484    1.370   .     A
C461   O496    1.373   .     S
C462   C463    1.408   .     A
C462   C466    1.405   .     A
C463   C464    1.409   .     A
C463   C469    1.414   .     A
C464   C465    1.408   .     A
C464   C472    1.406   .     A
C465   N484    1.370   .     A
C465   O495    1.373   .     S
C466   C467    1.395   .     A
C466   H497    1.083   .     S
C467   C468    1.405   .     A
C467   H499    1.083   .     S
C468   C469    1.408   .     A
C468   C473    1.402   .     A
C469   C470    1.409   .     A
C470   C471    1.406   .     A
C470   C474    1.408   .     A
C471   C472    1.399   .     A
C471   H503    1.083   .     S
C472   H498    1.083   .     S
C473   N485    1.370   .     A
C473   O506    1.374   .     S
C474   N485    1.370   .     A
C474   O505    1.372   .     S
C475   C481    1.413   .     A
C475   N485    1.440   .     S
C475   C480    1.413   1_554 A
C476   C481    1.506   .     S
C476   H500    1.110   .     S
C476   H501    1.108   .     S
C476   H507    1.110   .     S
C477   C481    1.401   .     A
C477   C482    1.401   .     A
C477   H502    1.083   .     S
C478   C480    1.506   .     S
C478   H483    1.111   .     S
C478   H486    1.110   .     S
C478   H504    1.111   .     S
C479   C480    1.404   .     A
C479   C482    1.402   1_556 A
C480   C475    1.413   1_556 A
C482   C479    1.402   1_554 A
H508   C535    1.084   .     S
C509   C514    1.402   .     A
C509   C510    1.403   1_556 A
C510   C511    1.404   .     A
C510   H543    1.084   .     S
C510   C509    1.403   1_554 A
C511   C512    1.412   .     A
C511   C515    1.505   .     S
C512   N540    1.441   .     S
C512   C513    1.412   1_554 A
C513   C514    1.403   .     A
C513   C516    1.505   .     S
C513   C512    1.412   1_556 A
C514   H544    1.084   .     S
C515   H545    1.111   .     S
C515   H546    1.110   .     S
C515   H547    1.110   .     S
C516   H548    1.110   .     S
C516   H549    1.111   .     S
C516   H550    1.110   .     S
C517   C518    1.408   .     A
C517   O552    1.373   .     S
C517   N540    1.370   1_556 A
C518   C519    1.409   .     A
C518   C522    1.406   .     A
C519   C525    1.414   .     A
C519   C520    1.409   1_556 A
C520   C521    1.403   .     A
C520   C528    1.404   .     A
C520   C519    1.409   1_554 A
C521   N540    1.370   .     A
C521   O551    1.374   .     S
C522   C523    1.399   .     A
C522   H553    1.083   .     S
C523   C524    1.406   .     A
C523   H555    1.083   .     S
C524   C525    1.409   .     A
C524   C529    1.409   .     A
C525   C526    1.408   1_556 A
C526   C527    1.405   .     A
C526   C530    1.403   .     A
C526   C525    1.408   1_554 A
C527   C528    1.395   .     A
C527   H559    1.083   .     S
C528   H554    1.083   .     S
C529   N541    1.370   .     A
C529   O562    1.373   .     S
C530   O561    1.374   .     S
C530   N541    1.371   1_554 A
C531   C536    1.412   .     A
C531   C537    1.414   .     A
C531   N541    1.442   .     S
C532   H556    1.110   .     S
C532   C537    1.505   1_554 S
C532   H557    1.109   1_554 S
C532   H563    1.110   1_554 S
C533   C537    1.403   .     A
C533   C538    1.401   .     A
C533   H558    1.083   .     S
C534   C536    1.506   .     S
C534   H539    1.111   .     S
C534   H542    1.110   .     S
C534   H560    1.111   .     S
C535   C536    1.402   .     A
C535   C538    1.403   .     A
C537   C532    1.505   1_556 S
N540   C517    1.370   1_554 A
N541   C530    1.371   1_556 A
H557   C532    1.109   1_556 S
H563   C532    1.110   1_556 S
