data_kag+N394+E161
_audit_creation_date              2025-01-21
_audit_creation_method            'Materials Studio'
_symmetry_space_group_name_H-M    'P1'
_symmetry_Int_Tables_number       1
_symmetry_cell_setting            triclinic
loop_
_symmetry_equiv_pos_as_xyz
  x,y,z
_cell_length_a                    47.5988
_cell_length_b                    49.9682
_cell_length_c                    22.5923
_cell_angle_alpha                 101.4380
_cell_angle_beta                  98.9531
_cell_angle_gamma                 114.6501
loop_
_atom_site_label
_atom_site_type_symbol
_atom_site_fract_x
_atom_site_fract_y
_atom_site_fract_z
_atom_site_U_iso_or_equiv
_atom_site_adp_type
_atom_site_occupancy
Pr0    Pr    0.51589   0.53863   0.00060   0.00000  Uiso   1.00
Pr1    Pr    0.49813   0.47174   1.01912   0.00000  Uiso   1.00
O2     O     0.45066   0.47461   1.02097   0.00000  Uiso   1.00
O3     O     0.46485   0.52402   0.01398   0.00000  Uiso   1.00
O4     O     0.51094   0.56865   0.94105   0.00000  Uiso   1.00
O5     O     0.54095   0.59115   0.03566   0.00000  Uiso   1.00
O6     O     0.52775   0.52066   0.08010   0.00000  Uiso   1.00
O7     O     0.50195   0.54620   0.09482   0.00000  Uiso   1.00
C8     C     0.49672   0.47707   0.89900   0.00000  Uiso   1.00
C9     C     0.44452   0.49760   0.01845   0.00000  Uiso   1.00
C10    C     0.52935   0.59400   0.98360   0.00000  Uiso   1.00
C11    C     0.48580   0.41594   0.03435   0.00000  Uiso   1.00
C12    C     0.56815   0.51251   0.99426   0.00000  Uiso   1.00
C13    C     0.51300   0.53177   0.11819   0.00000  Uiso   1.00
O14    O     0.56079   0.53424  -0.01264   0.00000  Uiso   1.00
O15    O     0.54992   0.48778   1.00769   0.00000  Uiso   1.00
O16    O     0.50282   0.44110   0.07819   0.00000  Uiso   1.00
O17    O     0.47460   0.41926   0.98266   0.00000  Uiso   1.00
O18    O     0.48484   0.48999   0.94077   0.00000  Uiso   1.00
O19    O     0.50610   0.46102   0.91962   0.00000  Uiso   1.00
Pr20   Pr    0.98185   0.46911   1.00537   0.00000  Uiso   1.00
Pr21   Pr    0.02777   0.53812   0.00768   0.00000  Uiso   1.00
O22    O     0.97777   0.53673  -0.01721   0.00000  Uiso   1.00
O23    O     0.94530   0.48773   0.98654   0.00000  Uiso   1.00
O24    O     0.94994   0.43444   0.04728   0.00000  Uiso   1.00
O25    O     0.95419   0.41777   0.95539   0.00000  Uiso   1.00
O26    O     0.00934   0.49137   0.94116   0.00000  Uiso   1.00
O27    O     0.95915   0.46699   0.90400   0.00000  Uiso   1.00
C28    C     0.02805   0.52405   0.11959   0.00000  Uiso   1.00
C29    C     0.95008   0.51459   0.98046   0.00000  Uiso   1.00
C30    C     0.94164   0.41133  -0.00003   0.00000  Uiso   1.00
C31    C     0.06788   0.59598   1.01307   0.00000  Uiso   1.00
C32    C     0.05959   0.49228   0.03185   0.00000  Uiso   1.00
C33    C    -0.01640   0.48254   0.89251   0.00000  Uiso   1.00
O34    O     0.03137   0.46955   1.02423   0.00000  Uiso   1.00
O35    O     0.06485   0.52007   0.03095   0.00000  Uiso   1.00
O36    O     0.05995   0.57281   0.96609   0.00000  Uiso   1.00
O37    O     0.05502   0.58955   0.05738   0.00000  Uiso   1.00
O38    O     1.00154   0.51606   0.07314   0.00000  Uiso   1.00
O39    O     0.05229   0.53866   0.10597   0.00000  Uiso   1.00
Pr40   Pr    0.54157   0.02446   0.00243   0.00000  Uiso   1.00
Pr41   Pr    0.46962   0.98032   1.00458   0.00000  Uiso   1.00
O42    O     0.47012   0.02779   0.02820   0.00000  Uiso   1.00
O43    O     0.52166   0.05942   0.02543   0.00000  Uiso   1.00
O44    O     0.57806   0.05479   0.95970   0.00000  Uiso   1.00
O45    O     0.59532   0.05119   0.04989   0.00000  Uiso   1.00
O46    O     0.51870   0.99961   0.06881   0.00000  Uiso   1.00
O47    O     0.54320   0.04812   0.10394   0.00000  Uiso   1.00
C48    C     0.48298   0.97987   0.88947   0.00000  Uiso   1.00
C49    C     0.49316   0.05441   0.03136   0.00000  Uiso   1.00
C50    C     0.60219   0.06294   1.00554   0.00000  Uiso   1.00
C51    C     0.40932   0.94166   0.00239   0.00000  Uiso   1.00
C52    C     0.51763   0.95019   0.97439   0.00000  Uiso   1.00
C53    C     0.52772   0.02515   0.11716   0.00000  Uiso   1.00
O54    O     0.54072   0.97678   0.97742   0.00000  Uiso   1.00
O55    O     0.48937   0.94538   0.98138   0.00000  Uiso   1.00
O56    O     0.43357   0.95017   0.04823   0.00000  Uiso   1.00
O57    O     0.41590   0.95323   0.95770   0.00000  Uiso   1.00
O58    O     0.49248   0.00537   0.93827   0.00000  Uiso   1.00
O59    O     0.46712   0.95692   0.90233   0.00000  Uiso   1.00
H60    H     0.47365   0.43280   0.78846   0.00000  Uiso   1.00
C61    C     0.51100   0.52695   0.17982   0.00000  Uiso   1.00
C62    C     0.52555   0.55209   0.23396   0.00000  Uiso   1.00
C63    C     0.52478   0.54762   0.29328   0.00000  Uiso   1.00
C64    C     0.50835   0.51754   0.29821   0.00000  Uiso   1.00
C65    C     0.49341   0.49213   0.24342   0.00000  Uiso   1.00
C66    C     0.49517   0.49711   0.18470   0.00000  Uiso   1.00
C67    C     0.54184   0.57490   0.35109   0.00000  Uiso   1.00
C68    C     0.47552   0.45987   0.24728   0.00000  Uiso   1.00
C69    C     0.48388   0.51640   0.38508   0.00000  Uiso   1.00
C70    C     0.48233   0.51282   0.44497   0.00000  Uiso   1.00
C71    C     0.50442   0.50531   0.47744   0.00000  Uiso   1.00
C72    C     0.52766   0.50162   0.44993   0.00000  Uiso   1.00
C73    C     0.52844   0.50567   0.39012   0.00000  Uiso   1.00
C74    C     0.45939   0.51667   0.47307   0.00000  Uiso   1.00
C75    C     0.45806   0.51263   0.53225   0.00000  Uiso   1.00
C76    C     0.47983   0.50492   0.56492   0.00000  Uiso   1.00
C77    C     0.50326   0.50150   0.53767   0.00000  Uiso   1.00
C78    C     0.52556   0.49431   0.57045   0.00000  Uiso   1.00
C79    C     0.54859   0.49059   0.54246   0.00000  Uiso   1.00
C80    C     0.54959   0.49412   0.48282   0.00000  Uiso   1.00
C81    C     0.47881   0.50054   0.62438   0.00000  Uiso   1.00
C82    C     0.52419   0.49102   0.63058   0.00000  Uiso   1.00
C83    C     0.49956   0.48976   0.71726   0.00000  Uiso   1.00
C84    C     0.52855   0.54816   0.76810   0.00000  Uiso   1.00
C85    C     0.51123   0.51095   0.83016   0.00000  Uiso   1.00
C86    C     0.46978   0.43195   0.66678   0.00000  Uiso   1.00
C87    C     0.48451   0.45578   0.78336   0.00000  Uiso   1.00
C88    C     0.48504   0.45973   0.72359   0.00000  Uiso   1.00
C89    C     0.51272   0.51555   0.77122   0.00000  Uiso   1.00
C90    C     0.49732   0.48130   0.83654   0.00000  Uiso   1.00
H91    H     0.48842   0.43046   0.64428   0.00000  Uiso   1.00
N92    N     0.50670   0.51287   0.35904   0.00000  Uiso   1.00
N93    N     0.50091   0.49391   0.65602   0.00000  Uiso   1.00
H94    H     0.45166   0.43387   0.63280   0.00000  Uiso   1.00
H95    H     0.53811   0.57513   0.22999   0.00000  Uiso   1.00
H96    H     0.48374   0.47776   0.14258   0.00000  Uiso   1.00
H97    H     0.55519   0.59655   0.33949   0.00000  Uiso   1.00
H98    H     0.52415   0.57753   0.37528   0.00000  Uiso   1.00
H99    H     0.55935   0.57146   0.38335   0.00000  Uiso   1.00
H100   H     0.45553   0.45798   0.26863   0.00000  Uiso   1.00
H101   H     0.46529   0.44263   0.20023   0.00000  Uiso   1.00
H102   H     0.49201   0.45417   0.27647   0.00000  Uiso   1.00
O103   O     0.55127   0.50264   0.36314   0.00000  Uiso   1.00
O104   O     0.46241   0.52360   0.35278   0.00000  Uiso   1.00
H105   H     0.44236   0.52280   0.44948   0.00000  Uiso   1.00
H106   H     0.56758   0.49095   0.46261   0.00000  Uiso   1.00
H107   H     0.44001   0.51570   0.55238   0.00000  Uiso   1.00
H108   H     0.55333   0.56052   0.79947   0.00000  Uiso   1.00
H109   H     0.53007   0.54954   0.72026   0.00000  Uiso   1.00
H110   H     0.52192   0.53062   0.87148   0.00000  Uiso   1.00
H111   H     0.56585   0.48479   0.56639   0.00000  Uiso   1.00
H112   H     0.45747   0.41029   0.67915   0.00000  Uiso   1.00
O113   O     0.54636   0.48494   0.66390   0.00000  Uiso   1.00
O114   O     0.45559   0.50298   0.65081   0.00000  Uiso   1.00
H115   H     0.51471   0.56006   0.78400   0.00000  Uiso   1.00
H116   H     0.97586   0.48675   0.14788   0.00000  Uiso   1.00
C117   C    -0.01400   0.48946   0.83269   0.00000  Uiso   1.00
C118   C     0.01625   0.50794   0.82609   0.00000  Uiso   1.00
C119   C     0.02016   0.51199   0.76785   0.00000  Uiso   1.00
C120   C     0.99318   0.49743   0.71534   0.00000  Uiso   1.00
C121   C     0.96243   0.47975   0.72217   0.00000  Uiso   1.00
C122   C     0.95904   0.47609   0.78109   0.00000  Uiso   1.00
C123   C     0.05319   0.53097   0.76167   0.00000  Uiso   1.00
C124   C     0.93355   0.46390   0.66626   0.00000  Uiso   1.00
C125   C     0.00602   0.47916   0.62092   0.00000  Uiso   1.00
C126   C     0.01064   0.48051   0.56155   0.00000  Uiso   1.00
C127   C     0.00561   0.50228   0.53643   0.00000  Uiso   1.00
C128   C     0.99618   0.52232   0.57094   0.00000  Uiso   1.00
C129   C     0.99233   0.52041   0.63055   0.00000  Uiso   1.00
C130   C     0.02008   0.46066   0.52679   0.00000  Uiso   1.00
C131   C     0.02453   0.46243   0.46778   0.00000  Uiso   1.00
C132   C     0.01940   0.48395   0.44209   0.00000  Uiso   1.00
C133   C     0.00995   0.50396   0.47663   0.00000  Uiso   1.00
C134   C     1.00476   0.52565   0.45141   0.00000  Uiso   1.00
C135   C     0.99517   0.54539   0.48602   0.00000  Uiso   1.00
C136   C     0.99085   0.54369   0.54510   0.00000  Uiso   1.00
C137   C     0.02328   0.48590   0.38252   0.00000  Uiso   1.00
C138   C     1.00915   0.52688   0.39194   0.00000  Uiso   1.00
C139   C     0.02163   0.50855   0.29730   0.00000  Uiso   1.00
C140   C     0.08192   0.54343   0.34267   0.00000  Uiso   1.00
C141   C     0.05424   0.53054   0.22981   0.00000  Uiso   1.00
C142   C     0.96190   0.47315   0.25300   0.00000  Uiso   1.00
C143   C     0.99705   0.49773   0.18715   0.00000  Uiso   1.00
C144   C     0.99424   0.49336   0.24559   0.00000  Uiso   1.00
C145   C     0.05194   0.52685   0.28908   0.00000  Uiso   1.00
C146   C     0.02674   0.51684   0.17932   0.00000  Uiso   1.00
H147   H     0.95496   0.48686   0.28714   0.00000  Uiso   1.00
N148   N    -0.00272   0.49909   0.65422   0.00000  Uiso   1.00
N149   N     0.01810   0.50711   0.35872   0.00000  Uiso   1.00
H150   H     0.96286   0.45409   0.27003   0.00000  Uiso   1.00
H151   H     0.03703   0.51862   0.86615   0.00000  Uiso   1.00
H152   H     0.93553   0.46218   0.78630   0.00000  Uiso   1.00
H153   H     0.07163   0.54061   0.80734   0.00000  Uiso   1.00
H154   H     0.05966   0.51641   0.72832   0.00000  Uiso   1.00
H155   H     1.05375   0.55043   0.74427   0.00000  Uiso   1.00
H156   H     0.93735   0.44841   0.62934   0.00000  Uiso   1.00
H157   H     0.91147   0.44983   0.67872   0.00000  Uiso   1.00
H158   H     0.92977   0.48133   0.64711   0.00000  Uiso   1.00
O159   O     0.98339   0.53989   0.66509   0.00000  Uiso   1.00
O160   O     0.01016   0.45765   0.64562   0.00000  Uiso   1.00
H161   H     0.02413   0.44374   0.54512   0.00000  Uiso   1.00
H162   H     0.98329   0.55914   0.57038   0.00000  Uiso   1.00
H163   H     0.03196   0.44689   0.44236   0.00000  Uiso   1.00
H164   H     0.09281   0.56854   0.34831   0.00000  Uiso   1.00
H165   H     0.07732   0.53998   0.38788   0.00000  Uiso   1.00
H166   H     0.07736   0.54502   0.22371   0.00000  Uiso   1.00
H167   H     0.99093   0.56219   0.46754   0.00000  Uiso   1.00
H168   H     0.94300   0.46289   0.20789   0.00000  Uiso   1.00
O169   O     1.00419   0.54788   0.36658   0.00000  Uiso   1.00
O170   O     0.03232   0.46654   0.34791   0.00000  Uiso   1.00
H171   H     0.09932   0.53494   0.33257   0.00000  Uiso   1.00
H172   H     0.52844   0.02645   0.86325   0.00000  Uiso   1.00
C173   C     0.52154   0.02433   0.17881   0.00000  Uiso   1.00
C174   C     0.49955  -0.00330   0.18582   0.00000  Uiso   1.00
C175   C     0.49594  -0.00581   0.24517   0.00000  Uiso   1.00
C176   C     0.51513   0.01972   0.29867   0.00000  Uiso   1.00
C177   C     0.53669   0.04789   0.29165   0.00000  Uiso   1.00
C178   C     0.53934   0.05009   0.23154   0.00000  Uiso   1.00
C179   C     0.47209   0.96415   0.25120   0.00000  Uiso   1.00
C180   C     0.55759   0.07526   0.34808   0.00000  Uiso   1.00
C181   C     0.53013   1.00266   0.38611   0.00000  Uiso   1.00
C182   C     0.52722   0.99679   0.44373   0.00000  Uiso   1.00
C183   C     0.50826   0.00627   0.47558   0.00000  Uiso   1.00
C184   C     0.49271   0.02154   0.44970   0.00000  Uiso   1.00
C185   C     0.49570   0.02622   0.39117   0.00000  Uiso   1.00
C186   C     0.54245   0.98137   0.46971   0.00000  Uiso   1.00
C187   C     0.53875   0.97531   0.52654   0.00000  Uiso   1.00
C188   C     0.52010   0.98490   0.55903   0.00000  Uiso   1.00
C189   C     0.50479   0.00042   0.53339   0.00000  Uiso   1.00
C190   C     0.48594   0.01004   0.56540   0.00000  Uiso   1.00
C191   C     0.47084   0.02557   0.53954   0.00000  Uiso   1.00
C192   C     0.47427   0.03135   0.48241   0.00000  Uiso   1.00
C193   C     0.51656   0.97965   0.61688   0.00000  Uiso   1.00
C194   C     0.48294   0.00409   0.62282   0.00000  Uiso   1.00
C195   C     0.49650  -0.01447   0.70859   0.00000  Uiso   1.00
C196   C     0.44905   0.93173   0.65826   0.00000  Uiso   1.00
C197   C     0.46939   0.95590   0.77421   0.00000  Uiso   1.00
C198   C     0.54373   0.03886   0.75800   0.00000  Uiso   1.00
C199   C     0.51318   0.00737   0.82187   0.00000  Uiso   1.00
C200   C     0.51741   0.00989   0.76290   0.00000  Uiso   1.00
C201   C     0.47246   0.95823   0.71446   0.00000  Uiso   1.00
C202   C     0.48909  -0.01935   0.82784   0.00000  Uiso   1.00
H203   H     0.53334   0.05012   0.73016   0.00000  Uiso   1.00
N204   N     0.51382   0.01642   0.36034   0.00000  Uiso   1.00
N205   N     0.49848  -0.01048   0.64780   0.00000  Uiso   1.00
H206   H     0.56027   0.03313   0.73483   0.00000  Uiso   1.00
H207   H     0.48561   0.97685   0.14506   0.00000  Uiso   1.00
H208   H     0.55621   0.07156   0.22615   0.00000  Uiso   1.00
H209   H     0.45880   0.94663   0.20479   0.00000  Uiso   1.00
H210   H     0.48464   0.95479   0.27997   0.00000  Uiso   1.00
H211   H     0.45439  -0.03217   0.27387   0.00000  Uiso   1.00
H212   H     0.57213   0.06908   0.38093   0.00000  Uiso   1.00
H213   H     0.57427   0.09498   0.33471   0.00000  Uiso   1.00
H214   H     0.54238   0.08273   0.37236   0.00000  Uiso   1.00
O215   O     0.47997   0.04027   0.36446   0.00000  Uiso   1.00
O216   O     0.54905   0.99412   0.35505   0.00000  Uiso   1.00
H217   H     0.55706   0.97373   0.44599   0.00000  Uiso   1.00
H218   H     0.46237   0.04346   0.46398   0.00000  Uiso   1.00
H219   H     0.55058   0.96311   0.54489   0.00000  Uiso   1.00
H220   H     0.42429   0.92800   0.65760   0.00000  Uiso   1.00
H221   H     0.45350   0.93567   0.61322   0.00000  Uiso   1.00
H222   H     0.45061   0.93519   0.77856   0.00000  Uiso   1.00
H223   H     0.45632   0.03332   0.56338   0.00000  Uiso   1.00
H224   H     0.55798   0.05564   0.80486   0.00000  Uiso   1.00
O225   O     0.46464   0.01330   0.65467   0.00000  Uiso   1.00
O226   O     0.53150   0.96482   0.64293   0.00000  Uiso   1.00
H227   H     0.45071   0.91051   0.66135   0.00000  Uiso   1.00
H228   H     0.05991   0.43767   0.99185   0.00000  Uiso   1.00
C229   C     0.41233   0.49383   0.02049   0.00000  Uiso   1.00
C230   C     0.40862   0.51901   0.05090   0.00000  Uiso   1.00
C231   C     0.37802   0.51625   0.05043   0.00000  Uiso   1.00
C232   C     0.35063   0.48784   0.01806   0.00000  Uiso   1.00
C233   C     0.35429   0.46271   0.98590   0.00000  Uiso   1.00
C234   C     0.38513   0.46577   0.98829   0.00000  Uiso   1.00
C235   C     0.37483   0.54364   0.08400   0.00000  Uiso   1.00
C236   C     0.32539   0.43296   0.94757   0.00000  Uiso   1.00
C237   C     0.30411   0.49401   0.97698   0.00000  Uiso   1.00
C238   C     0.27327   0.49065   0.97666   0.00000  Uiso   1.00
C239   C     0.25780   0.47672   0.01882   0.00000  Uiso   1.00
C240   C     0.27310   0.46602   0.05974   0.00000  Uiso   1.00
C241   C     0.30412   0.47031   0.05901   0.00000  Uiso   1.00
C242   C     0.25766   0.50102   0.93572   0.00000  Uiso   1.00
C243   C     0.22740   0.49825   0.93763   0.00000  Uiso   1.00
C244   C     0.21216   0.48512   0.98064   0.00000  Uiso   1.00
C245   C     0.22723   0.47399   0.02085   0.00000  Uiso   1.00
C246   C     0.21212   0.46080   0.06415   0.00000  Uiso   1.00
C247   C     0.22703   0.44904   0.10290   0.00000  Uiso   1.00
C248   C     0.25718   0.45157   0.10064   0.00000  Uiso   1.00
C249   C     0.18261   0.48371   0.98588   0.00000  Uiso   1.00
C250   C     0.18293   0.46060   0.06879   0.00000  Uiso   1.00
C251   C     0.14165   0.47610   0.04121   0.00000  Uiso   1.00
C252   C     0.17813   0.53225   0.10556   0.00000  Uiso   1.00
C253   C     0.11847   0.51022   0.07114   0.00000  Uiso   1.00
C254   C     0.10564   0.41972   0.98144   0.00000  Uiso   1.00
C255   C     0.08374   0.45650   1.01460   0.00000  Uiso   1.00
C256   C     0.11050   0.45131   1.01389   0.00000  Uiso   1.00
C257   C     0.14551   0.50542   0.07241   0.00000  Uiso   1.00
C258   C     0.08756   0.48613   0.04074   0.00000  Uiso   1.00
H259   H     0.11554   0.41062   1.01566   0.00000  Uiso   1.00
N260   N     0.31902   0.48424   0.01831   0.00000  Uiso   1.00
N261   N     0.16924   0.47266   0.03100   0.00000  Uiso   1.00
H262   H     0.11787   0.42078   0.94328   0.00000  Uiso   1.00
H263   H     0.42969   0.54082   0.07528   0.00000  Uiso   1.00
H264   H     0.38795   0.44655   0.96335   0.00000  Uiso   1.00
H265   H     0.39861   0.56408   0.10662   0.00000  Uiso   1.00
H266   H     0.36093   0.54995   0.05027   0.00000  Uiso   1.00
H267   H     0.36239   0.53817   0.12094   0.00000  Uiso   1.00
H268   H     0.31040   0.43743   0.91188   0.00000  Uiso   1.00
H269   H     0.33237   0.41620   0.92265   0.00000  Uiso   1.00
H270   H     0.31091   0.42237   0.97834   0.00000  Uiso   1.00
O271   O     0.31968   0.46061   0.09954   0.00000  Uiso   1.00
O272   O     0.31940   0.50719   0.93575   0.00000  Uiso   1.00
H273   H     0.26894   0.51169   0.90269   0.00000  Uiso   1.00
H274   H     0.26812   0.44252   0.13157   0.00000  Uiso   1.00
H275   H     0.21628   0.50694   0.90610   0.00000  Uiso   1.00
H276   H     0.17881   0.54203   0.15473   0.00000  Uiso   1.00
H277   H     0.19776   0.52570   0.10720   0.00000  Uiso   1.00
H278   H     0.12170   0.53304   0.09292   0.00000  Uiso   1.00
H279   H     0.21566   0.43821   0.13566   0.00000  Uiso   1.00
H280   H     0.07978   0.40328   0.96050   0.00000  Uiso   1.00
O281   O     0.16890   0.44964   0.11339   0.00000  Uiso   1.00
O282   O     0.16771   0.49470   0.94736   0.00000  Uiso   1.00
H283   H     0.18286   0.55030   0.08121   0.00000  Uiso   1.00
H284   H     0.65445   0.09512   0.10646   0.00000  Uiso   1.00
C285   C     0.91888   0.37984  -0.00297   0.00000  Uiso   1.00
C286   C     0.90349   0.35653   0.93961   0.00000  Uiso   1.00
C287   C     0.88005   0.32712   0.93649   0.00000  Uiso   1.00
C288   C     0.87233   0.32101   0.99186   0.00000  Uiso   1.00
C289   C     0.88878   0.34408   0.04992   0.00000  Uiso   1.00
C290   C     0.91169   0.37333   0.05191   0.00000  Uiso   1.00
C291   C     0.86280   0.30272   0.87426   0.00000  Uiso   1.00
C292   C     0.88181   0.33757   0.10971   0.00000  Uiso   1.00
C293   C     0.85144   0.26749   0.99197   0.00000  Uiso   1.00
C294   C     0.82690   0.24044   0.99670   0.00000  Uiso   1.00
C295   C     0.79706   0.23935   0.99902   0.00000  Uiso   1.00
C296   C     0.79184   0.26472  -0.00544   0.00000  Uiso   1.00
C297   C     0.81681   0.29094  -0.01137   0.00000  Uiso   1.00
C298   C     0.83162   0.21479   1.00036   0.00000  Uiso   1.00
C299   C     0.80704   0.18844   1.00647   0.00000  Uiso   1.00
C300   C     0.77718   0.18715   1.00902   0.00000  Uiso   1.00
C301   C     0.77231   0.21282   1.00569   0.00000  Uiso   1.00
C302   C     0.74270   0.21203   0.00892   0.00000  Uiso   1.00
C303   C     0.73787   0.23757   0.00493   0.00000  Uiso   1.00
C304   C     0.76209   0.26354  -0.00268   0.00000  Uiso   1.00
C305   C     0.75170   0.16062   1.01344   0.00000  Uiso   1.00
C306   C     0.71830   0.18538   0.01471   0.00000  Uiso   1.00
C307   C     0.69532   0.13179   1.01097   0.00000  Uiso   1.00
C308   C     0.67676   0.12118   0.89249   0.00000  Uiso   1.00
C309   C     0.64174   0.09153   0.95209   0.00000  Uiso   1.00
C310   C     0.71477   0.14120   0.12775   0.00000  Uiso   1.00
C311   C     0.65940   0.10037   0.06375   0.00000  Uiso   1.00
C312   C     0.68950   0.12387   0.06614   0.00000  Uiso   1.00
C313   C     0.67159   0.11462   0.95326   0.00000  Uiso   1.00
C314   C     0.63509   0.08484   1.00720   0.00000  Uiso   1.00
H315   H     0.72153   0.16611   0.13908   0.00000  Uiso   1.00
N316   N     0.84615   0.29220   0.98924   0.00000  Uiso   1.00
N317   N     0.72274   0.16000   1.01467   0.00000  Uiso   1.00
H318   H     0.73637   0.13816   0.12484   0.00000  Uiso   1.00
H319   H     0.90910   0.36154   0.89709   0.00000  Uiso   1.00
H320   H     0.92378   0.39121   0.09639   0.00000  Uiso   1.00
H321   H     0.87148   0.31112   0.83533   0.00000  Uiso   1.00
H322   H     0.86677   0.28245   0.87546   0.00000  Uiso   1.00
H323   H     0.83670   0.29555   0.86439   0.00000  Uiso   1.00
H324   H     0.88663   0.31826   0.11615   0.00000  Uiso   1.00
H325   H     0.89700   0.35792   0.15119   0.00000  Uiso   1.00
H326   H     0.85632   0.33120   0.10770   0.00000  Uiso   1.00
O327   O     0.81218   0.31596  -0.01529   0.00000  Uiso   1.00
O328   O     0.88110   0.26950   0.99212   0.00000  Uiso   1.00
H329   H     0.85428   0.21496   0.99840   0.00000  Uiso   1.00
H330   H     0.75747   0.28273  -0.00605   0.00000  Uiso   1.00
H331   H     0.81151   0.16910   1.00905   0.00000  Uiso   1.00
H332   H     0.65967   0.12920   0.87382   0.00000  Uiso   1.00
H333   H     0.70147   0.13894   0.89768   0.00000  Uiso   1.00
H334   H     0.62333   0.07924   0.90795   0.00000  Uiso   1.00
H335   H     0.71525   0.23746   0.00700   0.00000  Uiso   1.00
H336   H     0.70627   0.13279   0.16676   0.00000  Uiso   1.00
O337   O     0.68936   0.18439   0.01826   0.00000  Uiso   1.00
O338   O     0.75557   0.13500   1.01451   0.00000  Uiso   1.00
H339   H     0.67245   0.09979   0.85783   0.00000  Uiso   1.00
H340   H     0.61057   0.50050   0.06317   0.00000  Uiso   1.00
C341   C     0.92189   0.52010   0.97225   0.00000  Uiso   1.00
C342   C     0.91001   0.52537   0.91738   0.00000  Uiso   1.00
C343   C     0.88143   0.52803   0.90845   0.00000  Uiso   1.00
C344   C     0.86510   0.52609   0.95596   0.00000  Uiso   1.00
C345   C     0.87777   0.52175   0.01209   0.00000  Uiso   1.00
C346   C     0.90579   0.51843   0.01924   0.00000  Uiso   1.00
C347   C     0.86841   0.53275   0.84844   0.00000  Uiso   1.00
C348   C     0.86157   0.52058   0.06445   0.00000  Uiso   1.00
C349   C     0.80713   0.50112   0.91576   0.00000  Uiso   1.00
C350   C     0.77731   0.50085   0.91334   0.00000  Uiso   1.00
C351   C     0.77663   0.52798   0.94377   0.00000  Uiso   1.00
C352   C     0.80558   0.55518   0.97343   0.00000  Uiso   1.00
C353   C     0.83483   0.55446  -0.02622   0.00000  Uiso   1.00
C354   C     0.74826   0.47396   0.88305   0.00000  Uiso   1.00
C355   C     0.71895   0.47372   0.88497   0.00000  Uiso   1.00
C356   C     0.71807   0.50033   0.91735   0.00000  Uiso   1.00
C357   C     0.74697   0.52768   0.94600   0.00000  Uiso   1.00
C358   C     0.74634   0.55455   0.97814   0.00000  Uiso   1.00
C359   C     0.77529   0.58180   0.00587   0.00000  Uiso   1.00
C360   C     0.80459   0.58213   0.00352   0.00000  Uiso   1.00
C361   C     0.68904   0.50014   0.92325   0.00000  Uiso   1.00
C362   C     0.71672   0.55321   0.98301   0.00000  Uiso   1.00
C363   C     0.65931   0.52426   0.96794   0.00000  Uiso   1.00
C364   C     0.64968   0.54409   0.87448   0.00000  Uiso   1.00
C365   C     0.61009   0.52792   0.93700   0.00000  Uiso   1.00
C366   C     0.67030   0.50746   0.06425   0.00000  Uiso   1.00
C367   C     0.61872   0.50896   0.02524   0.00000  Uiso   1.00
C368   C     0.64895   0.51349   0.01792   0.00000  Uiso   1.00
C369   C     0.63981   0.53185   0.92767   0.00000  Uiso   1.00
C370   C     0.59929   0.51617   0.98505   0.00000  Uiso   1.00
H371   H     0.69274   0.52914   0.08884   0.00000  Uiso   1.00
N372   N     0.83510   0.52748   0.94690   0.00000  Uiso   1.00
N373   N     0.68898   0.52611   0.95700   0.00000  Uiso   1.00
H374   H     0.67642   0.48991   0.03977   0.00000  Uiso   1.00
H375   H     0.92245   0.52643   0.88088   0.00000  Uiso   1.00
H376   H     0.91528   0.51457   0.06175   0.00000  Uiso   1.00
H377   H     0.88394   0.53378   0.81614   0.00000  Uiso   1.00
H378   H     0.84413   0.51345   0.82387   0.00000  Uiso   1.00
H379   H     0.86686   0.55467   0.85889   0.00000  Uiso   1.00
H380   H     0.83625   0.50236   0.04697   0.00000  Uiso   1.00
H381   H     0.87372   0.51551   0.10364   0.00000  Uiso   1.00
H382   H     0.86224   0.54317   0.08343   0.00000  Uiso   1.00
O383   O     0.86327   0.58062   0.00348   0.00000  Uiso   1.00
O384   O     0.80819   0.47449   0.88898   0.00000  Uiso   1.00
H385   H     0.74806   0.45291   0.85852   0.00000  Uiso   1.00
H386   H     0.82647   0.60341   0.02631   0.00000  Uiso   1.00
H387   H     0.69705   0.45247   0.86194   0.00000  Uiso   1.00
H388   H     0.64922   0.56648   0.87974   0.00000  Uiso   1.00
H389   H     0.67414   0.54785   0.87264   0.00000  Uiso   1.00
H390   H     0.59506   0.53359   0.90590   0.00000  Uiso   1.00
H391   H     0.77544   0.60284   0.03035   0.00000  Uiso   1.00
H392   H     0.65848   0.49892   0.10012   0.00000  Uiso   1.00
O393   O     0.71568   0.57895   1.01544   0.00000  Uiso   1.00
O394   O     0.66071   0.47347   0.89693   0.00000  Uiso   1.00
H395   H     0.63251   0.52759   0.82935   0.00000  Uiso   1.00
H396   H     0.08512   0.61614   0.91629   0.00000  Uiso   1.00
C397   C     0.37659   0.91949   0.00093   0.00000  Uiso   1.00
C398   C     0.36997   0.91296   0.05623   0.00000  Uiso   1.00
C399   C     0.34004   0.88995   0.05508   0.00000  Uiso   1.00
C400   C     0.31646   0.87261  -0.00250   0.00000  Uiso   1.00
C401   C     0.32235   0.88009   0.94207   0.00000  Uiso   1.00
C402   C     0.35238   0.90358   0.94427   0.00000  Uiso   1.00
C403   C     0.33348   0.88337   0.11508   0.00000  Uiso   1.00
C404   C     0.29721   0.86238   0.88055   0.00000  Uiso   1.00
C405   C     0.26027   0.84534  -0.00258   0.00000  Uiso   1.00
C406   C     0.23438   0.81926   0.00219   0.00000  Uiso   1.00
C407   C     0.23840   0.79311   0.00510   0.00000  Uiso   1.00
C408   C     0.26755   0.79298   0.00097   0.00000  Uiso   1.00
C409   C     0.29227   0.81910  -0.00569   0.00000  Uiso   1.00
C410   C     0.20493   0.81883   0.00545   0.00000  Uiso   1.00
C411   C     0.17989   0.79283   0.01160   0.00000  Uiso   1.00
C412   C     0.18376   0.76672   0.01491   0.00000  Uiso   1.00
C413   C     0.21327   0.76703   0.01225   0.00000  Uiso   1.00
C414   C     0.21778   0.74132   0.01701   0.00000  Uiso   1.00
C415   C     0.24714   0.74168   0.01377   0.00000  Uiso   1.00
C416   C     0.27162   0.76708   0.00507   0.00000  Uiso   1.00
C417   C     0.15876   0.74000   0.01966   0.00000  Uiso   1.00
C418   C     0.19251   0.71561   0.02369   0.00000  Uiso   1.00
C419   C     0.13684   0.68647   0.02032   0.00000  Uiso   1.00
C420   C     0.14688   0.70391   0.13938   0.00000  Uiso   1.00
C421   C     0.10627   0.65086   0.07316   0.00000  Uiso   1.00
C422   C     0.12686   0.66958   0.90215   0.00000  Uiso   1.00
C423   C     0.09730   0.63407   0.96069   0.00000  Uiso   1.00
C424   C     0.12008   0.66333   0.96231   0.00000  Uiso   1.00
C425   C     0.12955   0.68028   0.07609   0.00000  Uiso   1.00
C426   C     0.09050   0.62755   1.01580   0.00000  Uiso   1.00
H427   H     0.15233   0.67592   0.90392   0.00000  Uiso   1.00
N428   N     0.28869   0.84496  -0.00526   0.00000  Uiso   1.00
N429   N     0.16335   0.71492   0.02252   0.00000  Uiso   1.00
H430   H     0.12195   0.68876   0.89518   0.00000  Uiso   1.00
H431   H     0.38843   0.92544   0.10027   0.00000  Uiso   1.00
H432   H     0.35733   0.90868   0.90145   0.00000  Uiso   1.00
H433   H     0.35383   0.89964   0.15646   0.00000  Uiso   1.00
H434   H     0.31178   0.88557   0.12140   0.00000  Uiso   1.00
H435   H     0.32936   0.85964   0.11336   0.00000  Uiso   1.00
H436   H     0.27515   0.86443   0.88371   0.00000  Uiso   1.00
H437   H     0.30532   0.87126   0.84172   0.00000  Uiso   1.00
H438   H     0.29151   0.83772   0.86912   0.00000  Uiso   1.00
O439   O     0.32080   0.81922  -0.01000   0.00000  Uiso   1.00
O440   O     0.25738   0.87154  -0.00270   0.00000  Uiso   1.00
H441   H     0.20111   0.83854   0.00316   0.00000  Uiso   1.00
H442   H     0.29385   0.76646   0.00217   0.00000  Uiso   1.00
H443   H     0.15754   0.79330   0.01398   0.00000  Uiso   1.00
H444   H     0.15953   0.69518   0.16978   0.00000  Uiso   1.00
H445   H     0.16486   0.72626   0.13674   0.00000  Uiso   1.00
H446   H     0.10130   0.64586   0.11607   0.00000  Uiso   1.00
H447   H     0.25123   0.72224   0.01740   0.00000  Uiso   1.00
H448   H     0.11166   0.64908   0.86092   0.00000  Uiso   1.00
O449   O     0.19668   0.69052   0.02916   0.00000  Uiso   1.00
O450   O     0.12944   0.73877   1.02010   0.00000  Uiso   1.00
H451   H     0.12934   0.70816   0.16168   0.00000  Uiso   1.00
H452   H     0.52817   0.60657   0.87334   0.00000  Uiso   1.00
C453   C     0.52387   0.92348  -0.03564   0.00000  Uiso   1.00
C454   C     0.51901   0.90652   0.00750   0.00000  Uiso   1.00
C455   C     0.52406   0.88054  -0.00069   0.00000  Uiso   1.00
C456   C     0.53315   0.87079  -0.05425   0.00000  Uiso   1.00
C457   C     0.53815   0.88784   0.90204   0.00000  Uiso   1.00
C458   C     0.53386   0.91442   0.91216   0.00000  Uiso   1.00
C459   C     0.51975   0.86339   0.04774   0.00000  Uiso   1.00
C460   C     0.54765   0.87749   0.84465   0.00000  Uiso   1.00
C461   C     0.50922   0.81532   0.90451   0.00000  Uiso   1.00
C462   C     0.51040   0.78742   0.90028   0.00000  Uiso   1.00
C463   C     0.53976   0.78817  -0.07414   0.00000  Uiso   1.00
C464   C     0.56756   0.81664  -0.04657   0.00000  Uiso   1.00
C465   C     0.56504   0.84398  -0.04210   0.00000  Uiso   1.00
C466   C     0.48276   0.75892   0.87338   0.00000  Uiso   1.00
C467   C     0.48385   0.73161   0.87521   0.00000  Uiso   1.00
C468   C     0.51279   0.73218   0.90249   0.00000  Uiso   1.00
C469   C     0.54107   0.76043  -0.07412   0.00000  Uiso   1.00
C470   C     0.57038   0.76110  -0.04860   0.00000  Uiso   1.00
C471   C     0.59827   0.78957  -0.02379   0.00000  Uiso   1.00
C472   C     0.59682   0.81706  -0.02224   0.00000  Uiso   1.00
C473   C     0.51395   0.70532   0.90930   0.00000  Uiso   1.00
C474   C     0.57070   0.73329  -0.04627   0.00000  Uiso   1.00
C475   C     0.54230   0.67916  -0.05150   0.00000  Uiso   1.00
C476   C     0.54967   0.70253   0.06504   0.00000  Uiso   1.00
C477   C     0.54288   0.64953   0.02211   0.00000  Uiso   1.00
C478   C     0.53513   0.65579   0.83291   0.00000  Uiso   1.00
C479   C     0.53333   0.62633   0.91154   0.00000  Uiso   1.00
C480   C     0.53703   0.65383   0.89903   0.00000  Uiso   1.00
C481   C     0.54527   0.67687   0.01052   0.00000  Uiso   1.00
C482   C     0.53599   0.62394   0.97270   0.00000  Uiso   1.00
H483   H     0.55788   0.67462   0.83151   0.00000  Uiso   1.00
N484   N     0.53606   0.84280  -0.06521   0.00000  Uiso   1.00
N485   N     0.54253   0.70637  -0.06457   0.00000  Uiso   1.00
H486   H     0.51494   0.66035   0.81566   0.00000  Uiso   1.00
H487   H     0.51150   0.91382   0.04796   0.00000  Uiso   1.00
H488   H     0.53733   0.92747   0.87854   0.00000  Uiso   1.00
H489   H     0.51269   0.87415   0.08680   0.00000  Uiso   1.00
H490   H     0.50076   0.83924   0.02602   0.00000  Uiso   1.00
H491   H     0.54262   0.86349   0.06790   0.00000  Uiso   1.00
H492   H     0.52896   0.85403   0.81611   0.00000  Uiso   1.00
H493   H     0.55059   0.89318   0.81490   0.00000  Uiso   1.00
H494   H     0.57078   0.87695   0.85882   0.00000  Uiso   1.00
O495   O     0.59147   0.87195  -0.01236   0.00000  Uiso   1.00
O496   O     0.48070   0.81503   0.88071   0.00000  Uiso   1.00
H497   H     0.46000   0.75768   0.85249   0.00000  Uiso   1.00
H498   H     0.61857   0.83864  -0.00109   0.00000  Uiso   1.00
H499   H     0.46188   0.71012   0.85595   0.00000  Uiso   1.00
H500   H     0.57352   0.71166   0.09843   0.00000  Uiso   1.00
H501   H     0.54788   0.72186   0.05087   0.00000  Uiso   1.00
H502   H     0.54469   0.64771   0.06942   0.00000  Uiso   1.00
H503   H     0.62112   0.79078  -0.00372   0.00000  Uiso   1.00
H504   H     0.53119   0.63399   0.80015   0.00000  Uiso   1.00
O505   O     0.59904   0.73347  -0.02162   0.00000  Uiso   1.00
O506   O     0.48600   0.67821   0.89274   0.00000  Uiso   1.00
H507   H     0.53079   0.69362   0.08954   0.00000  Uiso   1.00
H508   H     0.49626   0.08843   0.95346   0.00000  Uiso   1.00
C509   C     0.48035   0.38567   0.04269   0.00000  Uiso   1.00
C510   C     0.48547   0.38219   0.10296   0.00000  Uiso   1.00
C511   C     0.48197   0.35395   0.11150   0.00000  Uiso   1.00
C512   C     0.47384   0.32885   0.05879   0.00000  Uiso   1.00
C513   C     0.46853   0.33229   0.99803   0.00000  Uiso   1.00
C514   C     0.47143   0.36049   0.99055   0.00000  Uiso   1.00
C515   C     0.48706   0.35077   0.17670   0.00000  Uiso   1.00
C516   C     0.46100   0.30639   0.94121   0.00000  Uiso   1.00
C517   C     0.44470   0.27470   0.05414   0.00000  Uiso   1.00
C518   C     0.44407   0.24638   0.05558   0.00000  Uiso   1.00
C519   C     0.47330   0.24546   0.07292   0.00000  Uiso   1.00
C520   C     0.50251   0.27265   0.08889   0.00000  Uiso   1.00
C521   C     0.50199   0.30008   0.08434   0.00000  Uiso   1.00
C522   C     0.41508   0.21896   0.03900   0.00000  Uiso   1.00
C523   C     0.41520   0.19089   0.03786   0.00000  Uiso   1.00
C524   C     0.44428   0.18967   0.05401   0.00000  Uiso   1.00
C525   C     0.47339   0.21718   0.07303   0.00000  Uiso   1.00
C526   C     0.50267   0.21642   0.09102   0.00000  Uiso   1.00
C527   C     0.53160   0.24390   0.10936   0.00000  Uiso   1.00
C528   C     0.53154   0.27165   0.10767   0.00000  Uiso   1.00
C529   C     0.44518   0.16157   0.05022   0.00000  Uiso   1.00
C530   C     0.50232   0.18799   0.08851   0.00000  Uiso   1.00
C531   C     0.47518   0.13237   0.05518   0.00000  Uiso   1.00
C532   C     0.46205   0.12598   0.15871   0.00000  Uiso   1.00
C533   C     0.47632   0.09001   0.09172   0.00000  Uiso   1.00
C534   C     0.48538   0.13715   0.94970   0.00000  Uiso   1.00
C535   C     0.48940   0.09633   0.99441   0.00000  Uiso   1.00
C536   C     0.48334   0.12171   1.00093   0.00000  Uiso   1.00
C537   C     0.47118   0.11607   0.10045   0.00000  Uiso   1.00
C538   C     0.48631   0.08071   0.03982   0.00000  Uiso   1.00
H539   H     0.50356   0.16174   0.96835   0.00000  Uiso   1.00
N540   N     0.47339   0.30068   0.06690   0.00000  Uiso   1.00
N541   N     0.47398   0.16123   0.06622   0.00000  Uiso   1.00
H542   H     0.46162   0.13552   0.93008   0.00000  Uiso   1.00
H543   H     0.49233   0.40160   0.14344   0.00000  Uiso   1.00
H544   H     0.46779   0.36312   0.94393   0.00000  Uiso   1.00
H545   H     0.49300   0.37240   0.21273   0.00000  Uiso   1.00
H546   H     0.46489   0.33206   0.18056   0.00000  Uiso   1.00
H547   H     0.50716   0.34514   0.18712   0.00000  Uiso   1.00
H548   H     0.43745   0.28669   0.93585   0.00000  Uiso   1.00
H549   H     0.45984   0.31353   0.89776   0.00000  Uiso   1.00
H550   H     0.47993   0.29889   0.94634   0.00000  Uiso   1.00
O551   O     0.53038   0.32624   0.09572   0.00000  Uiso   1.00
O552   O     0.41640   0.27607   0.03815   0.00000  Uiso   1.00
H553   H     0.39222   0.21896   0.02576   0.00000  Uiso   1.00
H554   H     0.55433   0.29227   0.12081   0.00000  Uiso   1.00
H555   H     0.39247   0.17014   0.02382   0.00000  Uiso   1.00
H556   H     0.48126   0.13136   0.20070   0.00000  Uiso   1.00
H557   H     0.45838   0.14662   0.16120   0.00000  Uiso   1.00
H558   H     0.47354   0.07757   0.12644   0.00000  Uiso   1.00
H559   H     0.55442   0.24395   0.12381   0.00000  Uiso   1.00
H560   H     0.49230   0.12606   0.91084   0.00000  Uiso   1.00
O561   O     0.53070   0.18690   0.10581   0.00000  Uiso   1.00
O562   O     0.41720   0.13436   0.02883   0.00000  Uiso   1.00
H563   H     0.43939   0.10697   0.16002   0.00000  Uiso   1.00
loop_
_geom_bond_atom_site_label_1
_geom_bond_atom_site_label_2
_geom_bond_distance
_geom_bond_site_symmetry_2
_ccdc_geom_bond_type
Pr0    O3      2.316   .     S
Pr0    O5      2.282   .     S
Pr0    O6      2.258   .     S
Pr0    O7      2.333   .     S
Pr0    O14     2.295   .     S
Pr0    O4      2.261   1_554 S
Pr0    O18     2.236   1_554 S
Pr1    O2      2.329   .     S
Pr1    O15     2.328   .     S
Pr1    O17     2.284   .     S
Pr1    O18     2.266   .     S
Pr1    O19     2.333   .     S
Pr1    O6      2.246   1_556 S
Pr1    O16     2.275   1_556 S
O2     C9      1.308   1_556 A
O3     C9      1.306   .     A
O4     C10     1.275   .     A
O4     Pr0     2.261   1_556 S
O5     C10     1.280   1_554 A
O6     C13     1.366   .     S
O6     Pr1     2.246   1_554 S
O7     C13     1.207   .     D
C8     O18     1.362   .     S
C8     O19     1.201   .     D
C8     C90     1.470   .     S
C9     C229    1.473   .     S
C9     O2      1.308   1_554 A
C10    C482    1.475   .     S
C10    O5      1.280   1_556 A
C11    O16     1.275   .     A
C11    C509    1.481   .     S
C11    O17     1.278   1_554 A
C12    O15     1.307   .     A
C12    C370    1.469   .     S
C12    O14     1.301   1_556 A
C13    C61     1.470   .     S
O14    C12     1.301   1_554 A
O16    Pr1     2.275   1_554 S
O17    C11     1.278   1_556 A
O18    Pr0     2.236   1_556 S
Pr20   O23     2.313   .     S
Pr20   O25     2.272   .     S
Pr20   O27     2.337   .     S
Pr20   O24     2.260   1_556 S
Pr20   O26     2.252   1_655 S
Pr20   O34     2.319   1_655 S
Pr20   O38     2.241   1_556 S
Pr21   O35     2.331   .     S
Pr21   O37     2.273   .     S
Pr21   O39     2.332   .     S
Pr21   O22     2.327   1_455 S
Pr21   O26     2.230   1_554 S
Pr21   O36     2.261   1_554 S
Pr21   O38     2.244   1_455 S
O22    Pr21    2.327   1_655 S
O22    C29     1.305   1_554 A
O23    C29     1.304   .     A
O24    C30     1.277   .     A
O24    Pr20    2.260   1_554 S
O25    C30     1.277   1_556 A
O26    C33     1.357   .     S
O26    Pr20    2.252   1_455 S
O26    Pr21    2.230   1_556 S
O27    C33     1.202   1_655 D
C28    O39     1.207   .     D
C28    C146    1.468   .     S
C28    O38     1.362   1_455 S
C29    C341    1.470   .     S
C29    O22     1.305   1_556 A
C30    C285    1.473   .     S
C30    O25     1.277   1_554 A
C31    O36     1.278   .     A
C31    C426    1.475   .     S
C31    O37     1.278   1_556 A
C32    O35     1.309   .     A
C32    C258    1.480   .     S
C32    O34     1.305   1_554 A
C33    C117    1.469   .     S
C33    O27     1.202   1_455 D
O34    Pr20    2.319   1_455 S
O34    C32     1.305   1_556 A
O36    Pr21    2.261   1_556 S
O37    C31     1.278   1_554 A
O38    Pr20    2.241   1_554 S
O38    Pr21    2.244   1_655 S
O38    C28     1.362   1_655 S
Pr40   O43     2.323   .     S
Pr40   O45     2.282   .     S
Pr40   O47     2.336   .     S
Pr40   O44     2.270   1_554 S
Pr40   O46     2.257   1_545 S
Pr40   O54     2.318   1_544 S
Pr40   O58     2.238   1_554 S
Pr41   O55     2.316   .     S
Pr41   O57     2.279   .     S
Pr41   O59     2.333   .     S
Pr41   O42     2.315   1_566 S
Pr41   O46     2.237   1_556 S
Pr41   O56     2.268   1_556 S
Pr41   O58     2.260   1_565 S
O42    C49     1.303   .     A
O42    Pr41    2.315   1_544 S
O43    C49     1.307   .     A
O44    C50     1.276   .     A
O44    Pr40    2.270   1_556 S
O45    C50     1.277   1_554 A
O46    Pr40    2.257   1_565 S
O46    Pr41    2.237   1_554 S
O46    C53     1.360   1_565 S
O47    C53     1.204   .     D
C48    O59     1.203   .     D
C48    O58     1.360   1_565 S
C48    C202    1.471   1_565 S
C49    C538    1.466   .     S
C50    C314    1.479   .     S
C50    O45     1.277   1_556 A
C51    O56     1.276   .     A
C51    C397    1.478   .     S
C51    O57     1.277   1_554 A
C52    O54     1.304   .     A
C52    O55     1.305   .     A
C52    C453    1.467   1_556 S
C53    C173    1.472   .     S
C53    O46     1.360   1_545 S
O54    Pr40    2.318   1_566 S
O56    Pr41    2.268   1_554 S
O57    C51     1.277   1_556 A
O58    Pr40    2.238   1_556 S
O58    Pr41    2.260   1_545 S
O58    C48     1.360   1_545 S
H60    C87     1.084   .     S
C61    C62     1.398   .     A
C61    C66     1.399   .     A
C62    C63     1.405   .     A
C62    H95     1.084   .     S
C63    C64     1.413   .     A
C63    C67     1.504   .     S
C64    C65     1.414   .     A
C64    N92     1.447   .     S
C65    C66     1.406   .     A
C65    C68     1.505   .     S
C66    H96     1.082   .     S
C67    H97     1.111   .     S
C67    H98     1.110   .     S
C67    H99     1.111   .     S
C68    H100    1.111   .     S
C68    H101    1.111   .     S
C68    H102    1.110   .     S
C69    C70     1.409   .     A
C69    N92     1.369   .     A
C69    O104    1.373   .     S
C70    C71     1.408   .     A
C70    C74     1.405   .     A
C71    C72     1.408   .     A
C71    C77     1.417   .     A
C72    C73     1.409   .     A
C72    C80     1.406   .     A
C73    N92     1.371   .     A
C73    O103    1.372   .     S
C74    C75     1.398   .     A
C74    H105    1.083   .     S
C75    C76     1.405   .     A
C75    H107    1.083   .     S
C76    C77     1.408   .     A
C76    C81     1.408   .     A
C77    C78     1.408   .     A
C78    C79     1.405   .     A
C78    C82     1.409   .     A
C79    C80     1.399   .     A
C79    H111    1.083   .     S
C80    H106    1.083   .     S
C81    N93     1.370   .     A
C81    O114    1.372   .     S
C82    N93     1.370   .     A
C82    O113    1.373   .     S
C83    C88     1.414   .     A
C83    C89     1.416   .     A
C83    N93     1.446   .     S
C84    C89     1.505   .     S
C84    H108    1.111   .     S
C84    H109    1.108   .     S
C84    H115    1.110   .     S
C85    C89     1.403   .     A
C85    C90     1.397   .     A
C85    H110    1.080   .     S
C86    C88     1.505   .     S
C86    H91     1.110   .     S
C86    H94     1.111   .     S
C86    H112    1.111   .     S
C87    C88     1.406   .     A
C87    C90     1.399   .     A
H116   C143    1.083   .     S
C117   C118    1.400   .     A
C117   C122    1.401   1_455 A
C118   C119    1.399   .     A
C118   H151    1.083   .     S
C119   C123    1.506   .     S
C119   C120    1.411   1_455 A
C120   C121    1.412   .     A
C120   C119    1.411   1_655 A
C120   N148    1.438   1_655 S
C121   C122    1.404   .     A
C121   C124    1.506   .     S
C122   H152    1.083   .     S
C122   C117    1.401   1_655 A
C123   H153    1.112   .     S
C123   H154    1.111   .     S
C123   H155    1.111   1_455 S
C124   H156    1.111   .     S
C124   H157    1.110   .     S
C124   H158    1.111   .     S
C125   C126    1.403   .     A
C125   N148    1.370   .     A
C125   O160    1.373   .     S
C126   C127    1.408   .     A
C126   C130    1.405   .     A
C127   C133    1.411   .     A
C127   C128    1.409   1_455 A
C128   C129    1.403   .     A
C128   C136    1.405   .     A
C128   C127    1.409   1_655 A
C129   O159    1.373   .     S
C129   N148    1.369   1_655 A
C130   C131    1.396   .     A
C130   H161    1.083   .     S
C131   C132    1.405   .     A
C131   H163    1.083   .     S
C132   C133    1.410   .     A
C132   C137    1.403   .     A
C133   C134    1.408   1_455 A
C134   C135    1.405   .     A
C134   C138    1.401   .     A
C134   C133    1.408   1_655 A
C135   C136    1.395   .     A
C135   H167    1.083   .     S
C136   H162    1.083   .     S
C137   N149    1.370   .     A
C137   O170    1.373   .     S
C138   O169    1.374   .     S
C138   N149    1.370   1_655 A
C139   C145    1.415   .     A
C139   N149    1.436   .     S
C139   C144    1.410   1_455 A
C140   C145    1.506   .     S
C140   H164    1.110   .     S
C140   H165    1.109   .     S
C140   H171    1.110   .     S
C141   C145    1.402   .     A
C141   C146    1.400   .     A
C141   H166    1.084   .     S
C142   C144    1.506   .     S
C142   H147    1.110   .     S
C142   H150    1.110   .     S
C142   H168    1.111   .     S
C143   C144    1.398   .     A
C143   C146    1.400   1_655 A
C144   C139    1.410   1_655 A
C146   C143    1.400   1_455 A
N148   C120    1.438   1_455 S
N148   C129    1.369   1_455 A
N149   C138    1.370   1_455 A
H155   C123    1.111   1_655 S
H172   C199    1.081   .     S
C173   C174    1.400   .     A
C173   C178    1.401   .     A
C174   C175    1.401   .     A
C174   H207    1.082   1_545 S
C175   C176    1.413   .     A
C175   C179    1.506   1_545 S
C176   C177    1.412   .     A
C176   N204    1.443   .     S
C177   C178    1.405   .     A
C177   C180    1.505   .     S
C178   H208    1.083   .     S
C179   H209    1.111   .     S
C179   H210    1.109   .     S
C179   C175    1.506   1_565 S
C179   H211    1.110   1_565 S
C180   H212    1.111   .     S
C180   H213    1.111   .     S
C180   H214    1.110   .     S
C181   C182    1.405   .     A
C181   O216    1.372   .     S
C181   N204    1.370   1_565 A
C182   C186    1.406   .     A
C182   C183    1.408   1_565 A
C183   C184    1.409   .     A
C183   C189    1.413   .     A
C183   C182    1.408   1_545 A
C184   C185    1.406   .     A
C184   C192    1.405   .     A
C185   N204    1.369   .     A
C185   O215    1.372   .     S
C186   C187    1.397   .     A
C186   H217    1.083   .     S
C187   C188    1.405   .     A
C187   H219    1.083   .     S
C188   C193    1.405   .     A
C188   C189    1.410   1_565 A
C189   C190    1.408   .     A
C189   C188    1.410   1_545 A
C190   C191    1.405   .     A
C190   C194    1.403   .     A
C191   C192    1.396   .     A
C191   H223    1.083   .     S
C192   H218    1.083   .     S
C193   O226    1.373   .     S
C193   N205    1.370   1_565 A
C194   N205    1.370   .     A
C194   O225    1.373   .     S
C195   C200    1.412   .     A
C195   N205    1.438   .     S
C195   C201    1.416   1_545 A
C196   C201    1.506   .     S
C196   H220    1.111   .     S
C196   H221    1.109   .     S
C196   H227    1.111   .     S
C197   C201    1.403   .     A
C197   H222    1.084   .     S
C197   C202    1.401   1_565 A
C198   C200    1.507   .     S
C198   H203    1.110   .     S
C198   H206    1.110   .     S
C198   H224    1.111   .     S
C199   C200    1.400   .     A
C199   C202    1.399   .     A
C201   C195    1.416   1_565 A
C202   C197    1.401   1_545 A
C202   C48     1.471   1_545 S
N204   C181    1.370   1_545 A
N205   C193    1.370   1_545 A
H207   C174    1.082   1_565 S
H211   C179    1.110   1_545 S
H228   C255    1.083   .     S
C229   C230    1.402   .     A
C229   C234    1.400   1_554 A
C230   C231    1.403   .     A
C230   H263    1.084   .     S
C231   C232    1.413   .     A
C231   C235    1.506   .     S
C232   N260    1.440   .     S
C232   C233    1.412   1_554 A
C233   C234    1.402   .     A
C233   C236    1.505   .     S
C233   C232    1.412   1_556 A
C234   H264    1.084   .     S
C234   C229    1.400   1_556 A
C235   H265    1.111   .     S
C235   H266    1.109   .     S
C235   H267    1.109   .     S
C236   H268    1.111   .     S
C236   H269    1.110   .     S
C236   H270    1.109   .     S
C237   C238    1.405   .     A
C237   O272    1.373   .     S
C237   N260    1.370   1_556 A
C238   C242    1.405   .     A
C238   C239    1.410   1_556 A
C239   C240    1.408   .     A
C239   C245    1.413   .     A
C239   C238    1.410   1_554 A
C240   C241    1.404   .     A
C240   C248    1.406   .     A
C241   N260    1.370   .     A
C241   O271    1.373   .     S
C242   C243    1.397   .     A
C242   H273    1.083   .     S
C243   C244    1.406   .     A
C243   H275    1.083   .     S
C244   C249    1.403   .     A
C244   C245    1.407   1_556 A
C245   C246    1.410   .     A
C245   C244    1.407   1_554 A
C246   C247    1.405   .     A
C246   C250    1.406   .     A
C247   C248    1.397   .     A
C247   H279    1.083   .     S
C248   H274    1.083   .     S
C249   O282    1.373   .     S
C249   N261    1.371   1_556 A
C250   N261    1.369   .     A
C250   O281    1.373   .     S
C251   C257    1.415   .     A
C251   N261    1.441   .     S
C251   C256    1.412   1_554 A
C252   C257    1.508   .     S
C252   H276    1.111   .     S
C252   H277    1.110   .     S
C252   H283    1.110   .     S
C253   C257    1.401   .     A
C253   C258    1.402   .     A
C253   H278    1.084   .     S
C254   C256    1.506   .     S
C254   H259    1.110   .     S
C254   H262    1.111   .     S
C254   H280    1.111   .     S
C255   C256    1.404   .     A
C255   C258    1.403   1_556 A
C256   C251    1.412   1_556 A
C258   C255    1.403   1_554 A
N260   C237    1.370   1_554 A
N261   C249    1.371   1_554 A
H284   C311    1.084   .     S
C285   C290    1.400   .     A
C285   C286    1.403   1_554 A
C286   C287    1.406   .     A
C286   H319    1.084   .     S
C286   C285    1.403   1_556 A
C287   C288    1.412   .     A
C287   C291    1.504   .     S
C288   N316    1.441   .     S
C288   C289    1.411   1_556 A
C289   C290    1.399   .     A
C289   C292    1.505   .     S
C289   C288    1.411   1_554 A
C290   H320    1.084   .     S
C291   H321    1.111   .     S
C291   H322    1.110   .     S
C291   H323    1.110   .     S
C292   H324    1.111   .     S
C292   H325    1.110   .     S
C292   H326    1.109   .     S
C293   C294    1.408   .     A
C293   N316    1.370   .     A
C293   O328    1.372   .     S
C294   C295    1.408   .     A
C294   C298    1.406   .     A
C295   C301    1.414   .     A
C295   C296    1.409   1_556 A
C296   C297    1.403   .     A
C296   C304    1.404   .     A
C296   C295    1.409   1_554 A
C297   O327    1.373   .     S
C297   N316    1.369   1_554 A
C298   C299    1.400   .     A
C298   H329    1.083   .     S
C299   C300    1.406   .     A
C299   H331    1.083   .     S
C300   C301    1.409   .     A
C300   C305    1.410   .     A
C301   C302    1.407   1_556 A
C302   C303    1.405   .     A
C302   C306    1.402   .     A
C302   C301    1.407   1_554 A
C303   C304    1.395   .     A
C303   H335    1.083   .     S
C304   H330    1.083   .     S
C305   N317    1.371   .     A
C305   O338    1.372   .     S
C306   O337    1.373   .     S
C306   N317    1.370   1_554 A
C307   C313    1.415   .     A
C307   N317    1.443   .     S
C307   C312    1.414   1_556 A
C308   C313    1.507   .     S
C308   H332    1.110   .     S
C308   H333    1.109   .     S
C308   H339    1.110   .     S
C309   C313    1.400   .     A
C309   C314    1.401   .     A
C309   H334    1.084   .     S
C310   C312    1.505   .     S
C310   H315    1.110   .     S
C310   H318    1.110   .     S
C310   H336    1.111   .     S
C311   C312    1.408   .     A
C311   C314    1.404   1_554 A
C312   C307    1.414   1_554 A
C314   C311    1.404   1_556 A
N316   C297    1.369   1_556 A
N317   C306    1.370   1_556 A
H340   C367    1.084   .     S
C341   C342    1.401   .     A
C341   C346    1.399   1_556 A
C342   C343    1.409   .     A
C342   H375    1.084   .     S
C343   C344    1.416   .     A
C343   C347    1.505   .     S
C344   N372    1.444   .     S
C344   C345    1.414   1_556 A
C345   C346    1.400   .     A
C345   C348    1.507   .     S
C345   C344    1.414   1_554 A
C346   H376    1.084   .     S
C346   C341    1.399   1_554 A
C347   H377    1.110   .     S
C347   H378    1.110   .     S
C347   H379    1.110   .     S
C348   H380    1.110   .     S
C348   H381    1.111   .     S
C348   H382    1.110   .     S
C349   C350    1.406   .     A
C349   N372    1.371   .     A
C349   O384    1.373   .     S
C350   C351    1.409   .     A
C350   C354    1.406   .     A
C351   C352    1.409   .     A
C351   C357    1.414   .     A
C352   C353    1.407   1_556 A
C352   C360    1.406   1_556 A
C353   O383    1.373   .     S
C353   C352    1.407   1_554 A
C353   N372    1.371   1_554 A
C354   C355    1.397   .     A
C354   H385    1.083   .     S
C355   C356    1.405   .     A
C355   H387    1.083   .     S
C356   C357    1.408   .     A
C356   C361    1.405   .     A
C357   C358    1.409   .     A
C358   C362    1.406   .     A
C358   C359    1.405   1_556 A
C359   C360    1.398   .     A
C359   H391    1.083   .     S
C359   C358    1.405   1_554 A
C360   H386    1.083   .     S
C360   C352    1.406   1_554 A
C361   N373    1.370   .     A
C361   O394    1.373   .     S
C362   N373    1.369   .     A
C362   O393    1.373   .     S
C363   C369    1.414   .     A
C363   N373    1.440   .     S
C363   C368    1.414   1_556 A
C364   C369    1.505   .     S
C364   H388    1.111   .     S
C364   H389    1.108   .     S
C364   H395    1.110   .     S
C365   C369    1.400   .     A
C365   C370    1.401   .     A
C365   H390    1.085   .     S
C366   C368    1.506   .     S
C366   H371    1.111   .     S
C366   H374    1.109   .     S
C366   H392    1.111   .     S
C367   C368    1.402   .     A
C367   C370    1.398   1_554 A
C368   C363    1.414   1_554 A
C370   C367    1.398   1_556 A
N372   C353    1.371   1_556 A
H396   C423    1.084   .     S
C397   C398    1.402   .     A
C397   C402    1.404   1_554 A
C398   C399    1.401   .     A
C398   H431    1.084   .     S
C399   C400    1.411   .     A
C399   C403    1.505   .     S
C400   N428    1.441   .     S
C400   C401    1.412   1_554 A
C401   C402    1.406   .     A
C401   C404    1.503   .     S
C401   C400    1.412   1_556 A
C402   H432    1.084   .     S
C402   C397    1.404   1_556 A
C403   H433    1.110   .     S
C403   H434    1.111   .     S
C403   H435    1.109   .     S
C404   H436    1.109   .     S
C404   H437    1.110   .     S
C404   H438    1.109   .     S
C405   C406    1.409   .     A
C405   N428    1.371   .     A
C405   O440    1.373   .     S
C406   C407    1.410   .     A
C406   C410    1.407   .     A
C407   C408    1.408   .     A
C407   C413    1.414   .     A
C408   C409    1.401   .     A
C408   C416    1.404   .     A
C409   N428    1.370   .     A
C409   O439    1.374   .     S
C410   C411    1.400   .     A
C410   H441    1.083   .     S
C411   C412    1.406   .     A
C411   H443    1.083   .     S
C412   C413    1.409   .     A
C412   C417    1.408   .     A
C413   C414    1.409   .     A
C414   C415    1.404   .     A
C414   C418    1.401   .     A
C415   C416    1.394   .     A
C415   H447    1.083   .     S
C416   H442    1.083   .     S
C417   N429    1.371   .     A
C417   O450    1.373   1_554 S
C418   N429    1.370   .     A
C418   O449    1.374   .     S
C419   C425    1.416   .     A
C419   N429    1.439   .     S
C419   C424    1.413   1_554 A
C420   C425    1.507   .     S
C420   H444    1.110   .     S
C420   H445    1.108   .     S
C420   H451    1.110   .     S
C421   C425    1.405   .     A
C421   H446    1.085   .     S
C421   C426    1.403   1_554 A
C422   C424    1.507   .     S
C422   H427    1.109   .     S
C422   H430    1.111   .     S
C422   H448    1.111   .     S
C423   C424    1.399   .     A
C423   C426    1.400   .     A
C424   C419    1.413   1_556 A
C426   C421    1.403   1_556 A
O450   C417    1.373   1_556 S
H452   C479    1.084   .     S
C453   C454    1.399   .     A
C453   C458    1.401   1_554 A
C453   C52     1.467   1_554 S
C454   C455    1.399   .     A
C454   H487    1.084   .     S
C455   C456    1.412   .     A
C455   C459    1.506   .     S
C456   N484    1.439   .     S
C456   C457    1.413   1_554 A
C457   C458    1.406   .     A
C457   C460    1.505   .     S
C457   C456    1.413   1_556 A
C458   H488    1.084   .     S
C458   C453    1.401   1_556 A
C459   H489    1.111   .     S
C459   H490    1.110   .     S
C459   H491    1.111   .     S
C460   H492    1.111   .     S
C460   H493    1.110   .     S
C460   H494    1.110   .     S
C461   C462    1.404   .     A
C461   O496    1.373   .     S
C461   N484    1.370   1_556 A
C462   C466    1.405   .     A
C462   C463    1.409   1_556 A
C463   C464    1.409   .     A
C463   C469    1.413   .     A
C463   C462    1.409   1_554 A
C464   C465    1.406   .     A
C464   C472    1.405   .     A
C465   N484    1.369   .     A
C465   O495    1.373   .     S
C466   C467    1.396   .     A
C466   H497    1.083   .     S
C467   C468    1.405   .     A
C467   H499    1.083   .     S
C468   C473    1.403   .     A
C468   C469    1.408   1_556 A
C469   C470    1.409   .     A
C469   C468    1.408   1_554 A
C470   C471    1.406   .     A
C470   C474    1.407   .     A
C471   C472    1.398   .     A
C471   H503    1.083   .     S
C472   H498    1.083   .     S
C473   O506    1.373   .     S
C473   N485    1.371   1_556 A
C474   N485    1.372   .     A
C474   O505    1.373   .     S
C475   C481    1.418   .     A
C475   N485    1.443   .     S
C475   C480    1.415   1_554 A
C476   C481    1.508   .     S
C476   H500    1.109   .     S
C476   H501    1.107   .     S
C476   H507    1.109   .     S
C477   C481    1.404   .     A
C477   H502    1.084   .     S
C477   C482    1.399   1_554 A
C478   C480    1.507   .     S
C478   H483    1.110   .     S
C478   H486    1.108   .     S
C478   H504    1.112   .     S
C479   C480    1.402   .     A
C479   C482    1.401   .     A
C480   C475    1.415   1_556 A
C482   C477    1.399   1_556 A
N484   C461    1.370   1_554 A
N485   C473    1.371   1_554 A
H508   C535    1.084   .     S
C509   C510    1.403   .     A
C509   C514    1.401   1_554 A
C510   C511    1.407   .     A
C510   H543    1.084   .     S
C511   C512    1.414   .     A
C511   C515    1.506   .     S
C512   N540    1.447   .     S
C512   C513    1.414   1_554 A
C513   C514    1.405   .     A
C513   C516    1.504   .     S
C513   C512    1.414   1_556 A
C514   H544    1.083   .     S
C514   C509    1.401   1_556 A
C515   H545    1.111   .     S
C515   H546    1.110   .     S
C515   H547    1.109   .     S
C516   H548    1.109   .     S
C516   H549    1.110   .     S
C516   H550    1.110   .     S
C517   C518    1.410   .     A
C517   N540    1.373   .     A
C517   O552    1.373   .     S
C518   C519    1.408   .     A
C518   C522    1.407   .     A
C519   C520    1.408   .     A
C519   C525    1.415   .     A
C520   C521    1.405   .     A
C520   C528    1.405   .     A
C521   N540    1.371   .     A
C521   O551    1.373   .     S
C522   C523    1.400   .     A
C522   H553    1.083   .     S
C523   C524    1.405   .     A
C523   H555    1.083   .     S
C524   C525    1.409   .     A
C524   C529    1.409   .     A
C525   C526    1.408   .     A
C526   C527    1.404   .     A
C526   C530    1.403   .     A
C527   C528    1.396   .     A
C527   H559    1.083   .     S
C528   H554    1.083   .     S
C529   N541    1.370   .     A
C529   O562    1.373   .     S
C530   N541    1.370   .     A
C530   O561    1.374   .     S
C531   C537    1.417   .     A
C531   N541    1.441   .     S
C531   C536    1.414   1_554 A
C532   C537    1.505   .     S
C532   H556    1.110   .     S
C532   H557    1.108   .     S
C532   H563    1.110   .     S
C533   C537    1.405   .     A
C533   C538    1.399   .     A
C533   H558    1.084   .     S
C534   C536    1.507   .     S
C534   H539    1.109   .     S
C534   H542    1.111   .     S
C534   H560    1.111   .     S
C535   C536    1.399   .     A
C535   C538    1.397   1_556 A
C536   C531    1.414   1_556 A
C538   C535    1.397   1_554 A
