data_kag+N248+E229
_audit_creation_date              2025-01-21
_audit_creation_method            'Materials Studio'
_symmetry_space_group_name_H-M    'P1'
_symmetry_Int_Tables_number       1
_symmetry_cell_setting            triclinic
loop_
_symmetry_equiv_pos_as_xyz
  x,y,z
_cell_length_a                    46.0453
_cell_length_b                    48.1995
_cell_length_c                    23.0814
_cell_angle_alpha                 92.5933
_cell_angle_beta                  84.2626
_cell_angle_gamma                 125.6229
loop_
_atom_site_label
_atom_site_type_symbol
_atom_site_fract_x
_atom_site_fract_y
_atom_site_fract_z
_atom_site_U_iso_or_equiv
_atom_site_adp_type
_atom_site_occupancy
O0     O     0.52621   0.54412   0.91581   0.00000  Uiso   1.00
Yb1    Yb    0.50294   0.48289   1.00691   0.00000  Uiso   1.00
C2     C     0.49812   0.42796   0.01194   0.00000  Uiso   1.00
Yb3    Yb    0.50792   0.54738   0.00903   0.00000  Uiso   1.00
O4     O     0.52679   0.49662   0.91944   0.00000  Uiso   1.00
C5     C     0.44126   0.49503  -0.00711   0.00000  Uiso   1.00
C6     C     0.53261   0.52258   0.89205   0.00000  Uiso   1.00
O7     O     0.52211   0.56954   0.92368   0.00000  Uiso   1.00
C8     C     0.50240   0.58057   0.93502   0.00000  Uiso   1.00
O9     O     0.55210   0.49413   1.03400   0.00000  Uiso   1.00
O10    O     0.54377   0.53437   0.02552   0.00000  Uiso   1.00
O11    O     0.48048   0.47882   0.09581   0.00000  Uiso   1.00
O12    O     0.48392   0.57138  -0.01540   0.00000  Uiso   1.00
O13    O     0.48716   0.52982   0.09861   0.00000  Uiso   1.00
C14    C     0.56629   0.52502   1.03618   0.00000  Uiso   1.00
C15    C     0.47748   0.50141   0.12247   0.00000  Uiso   1.00
O16    O     0.47369   0.42933  -0.00638   0.00000  Uiso   1.00
O17    O     0.52567   0.45668   1.02715   0.00000  Uiso   1.00
O18    O     0.44979   0.52314   0.00631   0.00000  Uiso   1.00
O19    O     0.47093   0.49618   0.97606   0.00000  Uiso   1.00
O20    O     1.00343   0.52302   0.93134   0.00000  Uiso   1.00
Yb21   Yb    0.02593   0.49157   0.03580   0.00000  Uiso   1.00
C22    C     0.06344   0.46972   0.04411   0.00000  Uiso   1.00
Yb23   Yb    0.98099   0.51487   1.02109   0.00000  Uiso   1.00
O24    O     0.03654   0.50155   0.94035   0.00000  Uiso   1.00
C25    C     0.93979   0.45412  -0.01036   0.00000  Uiso   1.00
C26    C     0.02262   0.51254   0.90906   0.00000  Uiso   1.00
O27    O     0.93072   0.50417   1.00037   0.00000  Uiso   1.00
C28    C     0.94116   0.53466   1.01359   0.00000  Uiso   1.00
O29    O     0.06897   0.53697   0.98510   0.00000  Uiso   1.00
O30    O     0.03353   0.54006   0.04913   0.00000  Uiso   1.00
O31    O     0.00049   0.48127   0.12391   0.00000  Uiso   1.00
O32    O     0.97314   0.55418   0.02823   0.00000  Uiso   1.00
O33    O     0.96396   0.49857   0.11104   0.00000  Uiso   1.00
C34    C     0.06229   0.55631   0.00745   0.00000  Uiso   1.00
C35    C    -0.02340   0.48686   0.14287   0.00000  Uiso   1.00
O36    O     0.07393   0.49986   0.05951   0.00000  Uiso   1.00
O37    O     0.03231   0.45131   1.02538   0.00000  Uiso   1.00
O38    O     0.93020   0.47326  -0.00768   0.00000  Uiso   1.00
O39    O     0.97375   0.46858   1.00766   0.00000  Uiso   1.00
O40    O     0.47954   0.01266   0.09810   0.00000  Uiso   1.00
Yb41   Yb    0.52750   0.98499   0.03726   0.00000  Uiso   1.00
C42    C     0.55543   0.95542   1.06373   0.00000  Uiso   1.00
Yb43   Yb    0.49520   0.01703   1.00578   0.00000  Uiso   1.00
O44    O     0.50706   0.98834   0.12403   0.00000  Uiso   1.00
C45    C     0.55773   0.07016   0.02416   0.00000  Uiso   1.00
C46    C     0.48768  -0.00015   0.13665   0.00000  Uiso   1.00
O47    O     0.45016   0.01306  -0.02126   0.00000  Uiso   1.00
C48    C     0.46644   0.04537  -0.02313   0.00000  Uiso   1.00
O49    O     0.48592   0.93087   0.04713   0.00000  Uiso   1.00
O50    O     0.47589   0.96500   1.00864   0.00000  Uiso   1.00
O51    O     0.54112   0.98727   0.94420   0.00000  Uiso   1.00
O52    O     0.49866   0.06281   0.99192   0.00000  Uiso   1.00
O53    O     0.51738   0.01564   0.91923   0.00000  Uiso   1.00
C54    C     0.46248   0.93349   0.03349   0.00000  Uiso   1.00
C55    C     0.53454   0.00180   0.90606   0.00000  Uiso   1.00
O56    O     0.57221   0.98784   1.06376   0.00000  Uiso   1.00
O57    O     0.52279   0.93873   0.05109   0.00000  Uiso   1.00
O58    O     0.53388   0.07200   1.00967   0.00000  Uiso   1.00
O59    O     0.54758   0.03695   0.02998   0.00000  Uiso   1.00
C60    C     0.45984   0.48113   0.28465   0.00000  Uiso   1.00
C61    C     0.42851   0.47968   0.29744   0.00000  Uiso   1.00
C62    C     0.41402   0.48603   0.25390   0.00000  Uiso   1.00
C63    C     0.43045   0.49363   0.19706   0.00000  Uiso   1.00
C64    C     0.46110   0.49413   0.18298   0.00000  Uiso   1.00
C65    C     0.47572   0.48777   0.22687   0.00000  Uiso   1.00
C66    C     0.47535   0.47473   0.33255   0.00000  Uiso   1.00
H67    H     0.41538   0.47374   0.34129   0.00000  Uiso   1.00
H68    H     0.38994   0.48496   0.26424   0.00000  Uiso   1.00
H69    H     0.41885   0.49847   0.16376   0.00000  Uiso   1.00
H70    H     0.49954   0.48839   0.21617   0.00000  Uiso   1.00
H71    H     0.45558   0.44785   0.34799   0.00000  Uiso   1.00
H72    H     0.50075   0.47809   0.31590   0.00000  Uiso   1.00
C73    C     0.54788   0.53998   0.72860   0.00000  Uiso   1.00
C74    C     0.53435   0.53665   0.78744   0.00000  Uiso   1.00
C75    C     0.53318   0.54750   0.68087   0.00000  Uiso   1.00
C76    C     0.51195   0.52986   0.58482   0.00000  Uiso   1.00
C77    C     0.50458   0.50392   0.53713   0.00000  Uiso   1.00
C78    C     0.57567   0.53611   0.71404   0.00000  Uiso   1.00
C79    C     0.58893   0.52787   0.75685   0.00000  Uiso   1.00
C80    C     0.54755   0.52806   0.83065   0.00000  Uiso   1.00
H81    H     0.58672   0.53898   0.66921   0.00000  Uiso   1.00
H82    H     0.61010   0.52461   0.74507   0.00000  Uiso   1.00
H83    H     0.58506   0.51665   0.84717   0.00000  Uiso   1.00
H84    H     0.51306   0.53980   0.79931   0.00000  Uiso   1.00
H85    H     0.55517   0.57278   0.66114   0.00000  Uiso   1.00
C86    C     0.49116   0.48885   0.43167   0.00000  Uiso   1.00
C87    C     0.49682   0.51334   0.48102   0.00000  Uiso   1.00
H88    H     0.48778   0.52973   0.59566   0.00000  Uiso   1.00
H89    H     0.52845   0.50343   0.52807   0.00000  Uiso   1.00
H90    H     0.48114   0.47814   0.55250   0.00000  Uiso   1.00
H91    H     0.53479   0.55571   0.56837   0.00000  Uiso   1.00
H92    H     0.51065   0.54881   0.69862   0.00000  Uiso   1.00
H93    H     0.51617   0.49039   0.42097   0.00000  Uiso   1.00
H94    H     0.46884   0.46238   0.44616   0.00000  Uiso   1.00
N95    N     0.48228   0.49840   0.38040   0.00000  Uiso   1.00
N96    N     0.52070   0.52077   0.63692   0.00000  Uiso   1.00
C97    C     0.57467   0.52343   0.81467   0.00000  Uiso   1.00
C98    C     0.00552   0.50458   0.75102   0.00000  Uiso   1.00
C99    C     0.03585   0.50721   0.72412   0.00000  Uiso   1.00
C100   C     0.06265   0.51316   0.75748   0.00000  Uiso   1.00
C101   C     0.05900   0.51562   0.81797   0.00000  Uiso   1.00
C102   C     0.02891   0.51315   0.84529   0.00000  Uiso   1.00
C103   C     0.00264   0.50819   0.81141   0.00000  Uiso   1.00
C104   C    -0.02525   0.49515   0.71712   0.00000  Uiso   1.00
H105   H     0.03878   0.50453   0.67751   0.00000  Uiso   1.00
H106   H     0.08597   0.51522   0.73657   0.00000  Uiso   1.00
H107   H     0.07950   0.51922   0.84331   0.00000  Uiso   1.00
H108   H     0.97888   0.50534   0.83244   0.00000  Uiso   1.00
H109   H    -0.04237   0.46695   0.71151   0.00000  Uiso   1.00
H110   H     0.95750   0.50153   0.74209   0.00000  Uiso   1.00
C111   C     0.98123   0.49552   0.30465   0.00000  Uiso   1.00
C112   C    -0.01000   0.49312   0.24568   0.00000  Uiso   1.00
C113   C     0.01016   0.51300   0.34552   0.00000  Uiso   1.00
C114   C     0.00728   0.51351   0.45010   0.00000  Uiso   1.00
C115   C    -0.00826   0.49087   0.50424   0.00000  Uiso   1.00
C116   C     0.94612   0.48472   0.32371   0.00000  Uiso   1.00
C117   C     0.92031   0.47209   0.28393   0.00000  Uiso   1.00
C118   C     0.96466   0.48198   0.20528   0.00000  Uiso   1.00
H119   H     0.93893   0.48667   0.36910   0.00000  Uiso   1.00
H120   H     0.89341   0.46416   0.29869   0.00000  Uiso   1.00
H121   H     0.90989   0.46312   0.19404   0.00000  Uiso   1.00
H122   H     0.01735   0.50250   0.23062   0.00000  Uiso   1.00
H123   H     0.01626   0.53876   0.35401   0.00000  Uiso   1.00
C124   C    -0.02074   0.49137   0.61248   0.00000  Uiso   1.00
C125   C    -0.00177   0.51288   0.55750   0.00000  Uiso   1.00
H126   H     0.03695   0.53157   0.45024   0.00000  Uiso   1.00
H127   H     0.96243   0.47148   0.50195   0.00000  Uiso   1.00
H128   H     0.00493   0.47769   0.50686   0.00000  Uiso   1.00
H129   H    -0.00454   0.52816   0.45020   0.00000  Uiso   1.00
H130   H     0.03529   0.51692   0.32544   0.00000  Uiso   1.00
H131   H     0.94979   0.47532   0.60938   0.00000  Uiso   1.00
H132   H    -0.01163   0.47475   0.61740   0.00000  Uiso   1.00
N133   N    -0.01189   0.51421   0.66181   0.00000  Uiso   1.00
N134   N     0.99834   0.49223   0.39857   0.00000  Uiso   1.00
C135   C     0.92967   0.47131   0.22474   0.00000  Uiso   1.00
C136   C     0.46681   0.98104   0.29973   0.00000  Uiso   1.00
C137   C     0.44251   0.98953   0.31298   0.00000  Uiso   1.00
C138   C     0.43408   1.00238   0.26972   0.00000  Uiso   1.00
C139   C     0.44945   1.00652   0.21269   0.00000  Uiso   1.00
C140   C     0.47329   0.99748   0.19802   0.00000  Uiso   1.00
C141   C     0.48197   0.98485   0.24211   0.00000  Uiso   1.00
C142   C     0.47574   0.96739   0.34703   0.00000  Uiso   1.00
H143   H     0.43020   0.98633   0.35696   0.00000  Uiso   1.00
H144   H     0.41542   1.00899   0.28038   0.00000  Uiso   1.00
H145   H     0.44223   1.01637   0.17996   0.00000  Uiso   1.00
H146   H     0.50017   0.97763   0.23167   0.00000  Uiso   1.00
H147   H     0.45068   0.94284   0.36345   0.00000  Uiso   1.00
H148   H     0.49573   0.96241   0.32986   0.00000  Uiso   1.00
C149   C     0.55085   0.01605   0.74162   0.00000  Uiso   1.00
C150   C     0.53744   0.01400   0.79995   0.00000  Uiso   1.00
C151   C     0.54015   0.02790   0.69408   0.00000  Uiso   1.00
C152   C     0.51895   0.01442   0.59827   0.00000  Uiso   1.00
C153   C     0.50950   0.98923   0.54877   0.00000  Uiso   1.00
C154   C     0.57508   0.00751   0.72783   0.00000  Uiso   1.00
C155   C     0.58513  -0.00368   0.77131   0.00000  Uiso   1.00
C156   C     0.54774   0.00302   0.84425   0.00000  Uiso   1.00
H157   H     0.58606   0.00938   0.68325   0.00000  Uiso   1.00
H158   H     0.60373  -0.01036   0.76023   0.00000  Uiso   1.00
H159   H     0.58000  -0.01460   0.86195   0.00000  Uiso   1.00
H160   H     0.51917   0.02112   0.81069   0.00000  Uiso   1.00
H161   H     0.56455   0.05233   0.67570   0.00000  Uiso   1.00
C162   C     0.49561   0.97831   0.44350   0.00000  Uiso   1.00
C163   C     0.50482   0.00257   0.49430   0.00000  Uiso   1.00
H164   H     0.49643   0.01677   0.60986   0.00000  Uiso   1.00
H165   H     0.53142   0.98588   0.53904   0.00000  Uiso   1.00
H166   H     0.48420   0.96416   0.56231   0.00000  Uiso   1.00
H167   H     0.54349   0.03980   0.58343   0.00000  Uiso   1.00
H168   H     0.51998   0.03258   0.71155   0.00000  Uiso   1.00
H169   H     0.51809   0.97598   0.43143   0.00000  Uiso   1.00
H170   H     0.47079   0.95285   0.45694   0.00000  Uiso   1.00
N171   N     0.49007   0.99213   0.39406   0.00000  Uiso   1.00
N172   N     0.52521   0.00197   0.64892   0.00000  Uiso   1.00
C173   C     0.57149  -0.00608   0.82908   0.00000  Uiso   1.00
C174   C     0.33990   0.43835   0.99842   0.00000  Uiso   1.00
C175   C     0.33398   0.40914   0.97091   0.00000  Uiso   1.00
C176   C     0.36292   0.40787   0.95185   0.00000  Uiso   1.00
C177   C     0.39795   0.43577   0.95959   0.00000  Uiso   1.00
C178   C     0.40429   0.46521   0.98686   0.00000  Uiso   1.00
C179   C     0.37511   0.46617   1.00689   0.00000  Uiso   1.00
C180   C     0.30912   0.44043   1.01750   0.00000  Uiso   1.00
H181   H     0.30702   0.38746   0.96392   0.00000  Uiso   1.00
H182   H     0.35819   0.38531   0.93054   0.00000  Uiso   1.00
H183   H     0.42007   0.43449   0.94358   0.00000  Uiso   1.00
H184   H     0.37971   0.48865   1.02850   0.00000  Uiso   1.00
H185   H     0.28320   0.41607   1.00841   0.00000  Uiso   1.00
H186   H     0.30875   0.44471   1.06525   0.00000  Uiso   1.00
C187   C     0.14427   0.46866   0.05549   0.00000  Uiso   1.00
C188   C     0.12259   0.48029   0.05428   0.00000  Uiso   1.00
C189   C     0.18348   0.49316   0.06350   0.00000  Uiso   1.00
C190   C     0.23578   0.49655   0.02167   0.00000  Uiso   1.00
C191   C     0.25738   0.50015   0.96416   0.00000  Uiso   1.00
C192   C     0.12905   0.43374   0.04906   0.00000  Uiso   1.00
C193   C     0.09261   0.41074   0.04147   0.00000  Uiso   1.00
C194   C     0.08590   0.45724   0.04668   0.00000  Uiso   1.00
H195   H     0.14543   0.42438   0.04997   0.00000  Uiso   1.00
H196   H     0.08106   0.38385   0.03646   0.00000  Uiso   1.00
H197   H     0.04290   0.40410   0.03414   0.00000  Uiso   1.00
H198   H     0.13443   0.50731   0.05826   0.00000  Uiso   1.00
H199   H     0.18917   0.48417   0.10157   0.00000  Uiso   1.00
C200   C     0.28270   0.46952   0.99902   0.00000  Uiso   1.00
C201   C     0.29106   0.50225  -0.02677   0.00000  Uiso   1.00
H202   H     0.25291   0.51867   0.04976   0.00000  Uiso   1.00
H203   H     0.24032   0.47832   0.93562   0.00000  Uiso   1.00
H204   H     0.26601   0.52395   0.94135   0.00000  Uiso   1.00
H205   H     0.22663   0.47251   0.04441   0.00000  Uiso   1.00
H206   H     0.19063   0.51909   0.07353   0.00000  Uiso   1.00
H207   H     0.27639   0.46921   1.04685   0.00000  Uiso   1.00
H208   H     0.25937   0.44692   0.97932   0.00000  Uiso   1.00
N209   N     0.31399   0.46889   0.98653   0.00000  Uiso   1.00
N210   N     0.20441   0.49519   0.00961   0.00000  Uiso   1.00
C211   C     0.07109   0.42237   0.04016   0.00000  Uiso   1.00
C212   C     0.89287   0.35945   0.96775   0.00000  Uiso   1.00
C213   C     0.88442   0.35662   0.90994   0.00000  Uiso   1.00
C214   C     0.89240   0.38513   0.87992   0.00000  Uiso   1.00
C215   C     0.90930   0.41675   0.90701   0.00000  Uiso   1.00
C216   C     0.91901   0.42019   0.96396   0.00000  Uiso   1.00
C217   C     0.91100   0.39157   0.99415   0.00000  Uiso   1.00
C218   C     0.88165   0.32820   1.00164   0.00000  Uiso   1.00
H219   H     0.87121   0.33224   0.88834   0.00000  Uiso   1.00
H220   H     0.88573   0.38278   0.83549   0.00000  Uiso   1.00
H221   H     0.91602   0.43881   0.88291   0.00000  Uiso   1.00
H222   H     0.91846   0.39421   1.03820   0.00000  Uiso   1.00
H223   H     0.88142   0.30904   0.97248   0.00000  Uiso   1.00
H224   H     0.90167   0.33538   1.03307   0.00000  Uiso   1.00
C225   C     0.63842   0.16148   0.04424   0.00000  Uiso   1.00
C226   C     0.60475   0.13363   0.02818   0.00000  Uiso   1.00
C227   C     0.65049   0.19767   0.03549   0.00000  Uiso   1.00
C228   C     0.71457   0.24311   0.03168   0.00000  Uiso   1.00
C229   C     0.74993   0.25515   0.99647   0.00000  Uiso   1.00
C230   C     0.66055   0.15520   0.06982   0.00000  Uiso   1.00
C231   C     0.64978   0.12189   0.07805   0.00000  Uiso   1.00
C232   C     0.59357   0.09996   0.03740   0.00000  Uiso   1.00
H233   H     0.68628   0.17596   0.08331   0.00000  Uiso   1.00
H234   H     0.66705   0.11733   0.09772   0.00000  Uiso   1.00
H235   H     0.60865   0.06879   0.06948   0.00000  Uiso   1.00
H236   H     0.58722   0.13815   0.00924   0.00000  Uiso   1.00
H237   H     0.65206   0.20949   0.07874   0.00000  Uiso   1.00
C238   C     0.81717   0.29132   0.99791   0.00000  Uiso   1.00
C239   C     0.78158   0.27893   0.03242   0.00000  Uiso   1.00
H240   H     0.71278   0.26504   0.03934   0.00000  Uiso   1.00
H241   H     0.74995   0.23263   0.98359   0.00000  Uiso   1.00
H242   H     0.75254   0.26880   0.95656   0.00000  Uiso   1.00
H243   H     0.71377   0.23293   0.07454   0.00000  Uiso   1.00
H244   H     0.63044   0.19797   0.01301   0.00000  Uiso   1.00
H245   H     0.81735   0.26897   0.98444   0.00000  Uiso   1.00
H246   H     0.81974   0.30542   0.95879   0.00000  Uiso   1.00
N247   N     0.84657   0.31368   1.03431   0.00000  Uiso   1.00
N248   N     0.68472   0.21686  -0.00097   0.00000  Uiso   1.00
C249   C     0.61659   0.09443   0.06181   0.00000  Uiso   1.00
C250   C     0.87155   0.54755  -0.02529   0.00000  Uiso   1.00
C251   C     0.87433   0.56956   0.01931   0.00000  Uiso   1.00
C252   C     0.89843   0.57975   0.06118   0.00000  Uiso   1.00
C253   C     0.92045   0.56858   0.05854   0.00000  Uiso   1.00
C254   C     0.91781   0.54625   0.01480   0.00000  Uiso   1.00
C255   C     0.89304   0.53545  -0.02676   0.00000  Uiso   1.00
C256   C     0.84685   0.53840  -0.07207   0.00000  Uiso   1.00
H257   H     0.85824   0.57929   0.02145   0.00000  Uiso   1.00
H258   H     0.90024   0.59659   0.09549   0.00000  Uiso   1.00
H259   H     0.93916   0.57693   0.09129   0.00000  Uiso   1.00
H260   H     0.89124   0.51850   0.93910   0.00000  Uiso   1.00
H261   H     0.85531   0.56222  -0.09500   0.00000  Uiso   1.00
H262   H     0.84935   0.52240  -0.10545   0.00000  Uiso   1.00
C263   C     0.66587   0.56754   1.03444   0.00000  Uiso   1.00
C264   C     0.62921   0.54288   1.02913   0.00000  Uiso   1.00
C265   C     0.69260   0.56055   1.01080   0.00000  Uiso   1.00
C266   C     0.70239   0.51631   1.01914   0.00000  Uiso   1.00
C267   C     0.74194   0.53888  -0.00498   0.00000  Uiso   1.00
C268   C     0.67718   0.59895   1.05991   0.00000  Uiso   1.00
C269   C     0.65216   0.60579   1.07874   0.00000  Uiso   1.00
C270   C     0.60410   0.54991   1.04697   0.00000  Uiso   1.00
H271   H     0.70531   0.61823   1.06490   0.00000  Uiso   1.00
H272   H     0.66103   0.63007   1.09831   0.00000  Uiso   1.00
H273   H     0.59681   0.58749   1.08557   0.00000  Uiso   1.00
H274   H     0.62049   0.51883   0.00867   0.00000  Uiso   1.00
H275   H     0.72024   0.58456   1.00785   0.00000  Uiso   1.00
C276   C     0.79377   0.53789  -0.04990   0.00000  Uiso   1.00
C277   C     0.75595   0.51715  -0.01925   0.00000  Uiso   1.00
H278   H     0.69859   0.49769   0.05118   0.00000  Uiso   1.00
H279   H     0.74472   0.55246   0.95488   0.00000  Uiso   1.00
H280   H     0.75819   0.55801   0.02798   0.00000  Uiso   1.00
H281   H     0.68495   0.50140   0.98366   0.00000  Uiso   1.00
H282   H     0.68639   0.55046   0.96598   0.00000  Uiso   1.00
H283   H     0.79228   0.54216  -0.09612   0.00000  Uiso   1.00
H284   H     0.81035   0.56295  -0.02846   0.00000  Uiso   1.00
N285   N     0.80942   0.51892  -0.04672   0.00000  Uiso   1.00
N286   N     0.69093   0.53630   1.04954   0.00000  Uiso   1.00
C287   C     0.61578   0.58156   1.07166   0.00000  Uiso   1.00
C288   C     0.36362   0.87623   0.01048   0.00000  Uiso   1.00
C289   C     0.35013   0.85464   0.05973   0.00000  Uiso   1.00
C290   C     0.37332   0.85818   0.09878   0.00000  Uiso   1.00
C291   C     0.41017   0.88324   0.08911   0.00000  Uiso   1.00
C292   C     0.42403   0.90551   0.04083   0.00000  Uiso   1.00
C293   C     0.40065   0.90210   0.00184   0.00000  Uiso   1.00
C294   C     0.33855   0.87170  -0.03225   0.00000  Uiso   1.00
H295   H     0.32167   0.83523   0.06835   0.00000  Uiso   1.00
H296   H     0.36265   0.84163   0.13688   0.00000  Uiso   1.00
H297   H     0.42772   0.88596   0.12031   0.00000  Uiso   1.00
H298   H     0.41134   0.91926  -0.03551   0.00000  Uiso   1.00
H299   H     0.31649   0.87215  -0.00866   0.00000  Uiso   1.00
H300   H     0.35283   0.89339  -0.06394   0.00000  Uiso   1.00
C301   C     0.13123   0.64335   0.93686   0.00000  Uiso   1.00
C302   C     0.11398   0.60919   0.95441   0.00000  Uiso   1.00
C303   C     0.16795   0.66325   0.90467   0.00000  Uiso   1.00
C304   C     0.22448   0.71956   0.90906   0.00000  Uiso   1.00
C305   C     0.24113   0.75078  -0.05227   0.00000  Uiso   1.00
C306   C     0.11468   0.65988   0.95238   0.00000  Uiso   1.00
C307   C     0.08211   0.64309   0.98684   0.00000  Uiso   1.00
C308   C     0.08115   0.59224   0.98930   0.00000  Uiso   1.00
H309   H     0.12755   0.68613   0.93896   0.00000  Uiso   1.00
H310   H     0.06977   0.65619   0.99924   0.00000  Uiso   1.00
H311   H     0.04080   0.59734   1.03365   0.00000  Uiso   1.00
H312   H     0.12642   0.59615   0.94207   0.00000  Uiso   1.00
H313   H     0.16631   0.67283   0.86304   0.00000  Uiso   1.00
C314   C     0.28729   0.81419  -0.04961   0.00000  Uiso   1.00
C315   C     0.27581   0.78146   0.91813   0.00000  Uiso   1.00
H316   H     0.24370   0.71288   0.89749   0.00000  Uiso   1.00
H317   H     0.22139   0.75698  -0.04191   0.00000  Uiso   1.00
H318   H     0.24712   0.74487  -0.01092   0.00000  Uiso   1.00
H319   H     0.21775   0.72560   0.86861   0.00000  Uiso   1.00
H320   H     0.17764   0.64702   0.89451   0.00000  Uiso   1.00
H321   H     0.27124   0.82299  -0.06255   0.00000  Uiso   1.00
H322   H     0.28218   0.80908  -0.00187   0.00000  Uiso   1.00
N323   N     0.32546   0.84026  -0.06505   0.00000  Uiso   1.00
N324   N     0.19238   0.69124   0.94180   0.00000  Uiso   1.00
C325   C     0.06572   0.60965   1.00607   0.00000  Uiso   1.00
C326   C     0.57016   0.88675   0.08235   0.00000  Uiso   1.00
C327   C     0.60563   0.90652   0.09754   0.00000  Uiso   1.00
C328   C     0.62447   0.94192   0.10177   0.00000  Uiso   1.00
C329   C     0.60809   0.95788   0.09114   0.00000  Uiso   1.00
C330   C     0.57253   0.93850   0.07620   0.00000  Uiso   1.00
C331   C     0.55374   0.90289   0.07179   0.00000  Uiso   1.00
C332   C     0.54974   0.84857   0.07904   0.00000  Uiso   1.00
H333   H     0.61860   0.89448   0.10630   0.00000  Uiso   1.00
H334   H     0.65185   0.95703   0.11341   0.00000  Uiso   1.00
H335   H     0.62324   0.98537   0.09451   0.00000  Uiso   1.00
H336   H     0.52639   0.88774   0.05989   0.00000  Uiso   1.00
H337   H     0.54981   0.83860   0.12153   0.00000  Uiso   1.00
H338   H     0.52136   0.83697   0.07125   0.00000  Uiso   1.00
C339   C     0.52401   0.65898   0.85904   0.00000  Uiso   1.00
C340   C     0.52476   0.63782   0.89786   0.00000  Uiso   1.00
C341   C     0.54866   0.69717   0.86421   0.00000  Uiso   1.00
C342   C     0.55896   0.74458   0.92268   0.00000  Uiso   1.00
C343   C     0.54100   0.75431  -0.02978   0.00000  Uiso   1.00
C344   C     0.49950   0.64404   0.81638   0.00000  Uiso   1.00
C345   C     0.47598   0.60851   0.81290   0.00000  Uiso   1.00
C346   C     0.50132   0.60219   0.89408   0.00000  Uiso   1.00
H347   H     0.49828   0.65985   0.78626   0.00000  Uiso   1.00
H348   H     0.45700   0.59721   0.78018   0.00000  Uiso   1.00
H349   H     0.45843   0.56009   0.84867   0.00000  Uiso   1.00
H350   H     0.54360   0.64911   0.93091   0.00000  Uiso   1.00
H351   H     0.54931   0.70975   0.82434   0.00000  Uiso   1.00
C352   C     0.54545   0.80234   0.02680   0.00000  Uiso   1.00
C353   C     0.56358   0.79290   0.97912   0.00000  Uiso   1.00
H354   H     0.58536   0.75239   0.93561   0.00000  Uiso   1.00
H355   H     0.51429   0.74569  -0.04246   0.00000  Uiso   1.00
H356   H     0.53716   0.74123   0.01172   0.00000  Uiso   1.00
H357   H     0.56316   0.75804   0.88137   0.00000  Uiso   1.00
H358   H     0.57634   0.70498   0.86849   0.00000  Uiso   1.00
H359   H     0.51812   0.79237   0.01523   0.00000  Uiso   1.00
H360   H     0.54336   0.79047   0.06868   0.00000  Uiso   1.00
N361   N     0.56654   0.83947   0.03211   0.00000  Uiso   1.00
N362   N     0.53578   0.70753   0.91528   0.00000  Uiso   1.00
C363   C     0.47683   0.58758   0.85165   0.00000  Uiso   1.00
C364   C     0.46283   0.33494  -0.00450   0.00000  Uiso   1.00
C365   C     0.48618   0.33363   0.02815   0.00000  Uiso   1.00
C366   C     0.51404   0.36315   0.05307   0.00000  Uiso   1.00
C367   C     0.51840   0.39409   0.04692   0.00000  Uiso   1.00
C368   C     0.49467   0.39571   0.01594   0.00000  Uiso   1.00
C369   C     0.46709   0.36606  -0.01009   0.00000  Uiso   1.00
C370   C     0.43301   0.30315  -0.03191   0.00000  Uiso   1.00
H371   H     0.48309   0.30985   0.03395   0.00000  Uiso   1.00
H372   H     0.53209   0.36195   0.07770   0.00000  Uiso   1.00
H373   H     0.53988   0.41658   0.06731   0.00000  Uiso   1.00
H374   H     0.44873   0.36711  -0.03422   0.00000  Uiso   1.00
H375   H     0.41161   0.28646   0.00290   0.00000  Uiso   1.00
H376   H     0.42053   0.30968  -0.06236   0.00000  Uiso   1.00
C377   C     0.45263   0.11148   0.93159   0.00000  Uiso   1.00
C378   C     0.46822   0.09681   0.95402   0.00000  Uiso   1.00
C379   C     0.47315   0.14956   0.92478   0.00000  Uiso   1.00
C380   C     0.46642   0.19561   0.93311   0.00000  Uiso   1.00
C381   C     0.44133   0.20529  -0.04323   0.00000  Uiso   1.00
C382   C     0.41814   0.09016   0.91244   0.00000  Uiso   1.00
C383   C     0.39919   0.05477   0.91655   0.00000  Uiso   1.00
C384   C     0.44948   0.06111   0.95718   0.00000  Uiso   1.00
H385   H     0.40596   0.10102   0.89420   0.00000  Uiso   1.00
H386   H     0.37258   0.03853   0.90179   0.00000  Uiso   1.00
H387   H     0.39964   0.01271   0.94065   0.00000  Uiso   1.00
H388   H     0.49514   0.11313   0.96767   0.00000  Uiso   1.00
H389   H     0.47907   0.15561   0.87727   0.00000  Uiso   1.00
C390   C     0.43241   0.25238  -0.04098   0.00000  Uiso   1.00
C391   C     0.45532   0.24062  -0.06627   0.00000  Uiso   1.00
H392   H     0.49326   0.21377   0.94941   0.00000  Uiso   1.00
H393   H     0.41409   0.18628  -0.05743   0.00000  Uiso   1.00
H394   H     0.43972   0.20532   0.00516   0.00000  Uiso   1.00
H395   H     0.46907   0.19723   0.88469   0.00000  Uiso   1.00
H396   H     0.49903   0.16295   0.94478   0.00000  Uiso   1.00
H397   H     0.40443   0.23415  -0.05271   0.00000  Uiso   1.00
H398   H     0.43265   0.25320   0.00726   0.00000  Uiso   1.00
N399   N     0.44730   0.28620  -0.06516   0.00000  Uiso   1.00
N400   N     0.45162   0.16084   0.95222   0.00000  Uiso   1.00
C401   C     0.41469   0.04027   0.93876   0.00000  Uiso   1.00
loop_
_geom_bond_atom_site_label_1
_geom_bond_atom_site_label_2
_geom_bond_distance
_geom_bond_site_symmetry_2
_ccdc_geom_bond_type
O0     C6      1.318   .     A
O0     Yb3     2.264   1_556 S
Yb1    O4      2.133   .     S
Yb1    O9      2.152   .     S
Yb1    O17     2.145   .     S
Yb1    O19     2.107   .     S
Yb1    Yb3     2.979   1_556 S
Yb1    O10     2.123   1_556 S
Yb1    O11     2.166   1_556 S
Yb1    O16     2.129   1_556 S
C2     O16     1.277   .     A
C2     C368    1.474   .     S
C2     O17     1.284   1_554 A
Yb3    O10     2.148   .     S
Yb3    O12     2.133   .     S
Yb3    O13     2.174   .     S
Yb3    O18     2.217   .     S
Yb3    O0      2.264   1_554 S
Yb3    Yb1     2.979   1_554 S
Yb3    O7      2.137   1_554 S
Yb3    O19     2.182   1_554 S
O4     C6      1.298   .     A
C5     O18     1.206   .     D
C5     O19     1.352   1_554 S
C5     C178    1.470   1_554 S
C6     C80     1.476   .     S
O7     C8      1.295   .     A
O7     Yb3     2.137   1_556 S
C8     C346    1.463   .     S
C8     O12     1.281   1_556 A
O9     C14     1.230   .     D
O10    Yb1     2.123   1_554 S
O10    C14     1.394   1_554 S
O11    C15     1.297   .     A
O11    Yb1     2.166   1_554 S
O12    C8      1.281   1_554 A
O13    C15     1.298   .     A
C14    C270    1.469   .     S
C14    O10     1.394   1_556 S
C15    C64     1.472   .     S
O16    Yb1     2.129   1_554 S
O17    C2      1.284   1_556 A
O19    Yb3     2.182   1_556 S
O19    C5      1.352   1_556 S
O20    Yb23    2.165   .     S
O20    C26     1.306   1_655 A
Yb21   O30     2.164   .     S
Yb21   O31     2.166   .     S
Yb21   O36     2.130   .     S
Yb21   Yb23    2.923   1_454 S
Yb21   O24     2.221   1_554 S
Yb21   O29     2.191   1_554 S
Yb21   O37     2.125   1_554 S
Yb21   O39     2.137   1_454 S
C22    O36     1.281   .     A
C22    C194    1.475   .     S
C22    O37     1.279   1_554 A
Yb23   O27     2.159   .     S
Yb23   O39     2.069   .     S
Yb23   Yb21    2.923   1_656 S
Yb23   O30     2.137   1_656 S
Yb23   O32     2.123   1_556 S
Yb23   O33     2.156   1_556 S
Yb23   O38     2.159   1_556 S
O24    C26     1.317   .     A
O24    Yb21    2.221   1_556 S
C25    O38     1.230   .     D
C25    O39     1.392   1_554 S
C25    C216    1.464   1_554 S
C26    C102    1.470   .     S
C26    O20     1.306   1_455 A
O27    C28     1.284   .     A
C28    O32     1.275   1_556 A
C28    C254    1.470   1_556 S
O29    Yb21    2.191   1_556 S
O29    C34     1.220   1_556 D
O30    C34     1.378   .     S
O30    Yb23    2.137   1_454 S
O31    C35     1.309   .     A
O32    Yb23    2.123   1_554 S
O32    C28     1.275   1_554 A
O33    Yb23    2.156   1_554 S
O33    C35     1.305   1_655 A
C34    O29     1.220   1_554 D
C34    C308    1.473   1_554 S
C35    O33     1.305   1_455 A
C35    C118    1.468   1_455 S
O37    Yb21    2.125   1_556 S
O37    C22     1.279   1_556 A
O38    Yb23    2.159   1_554 S
O39    Yb21    2.137   1_656 S
O39    C25     1.392   1_556 S
O40    C46     1.303   .     A
O40    Yb43    2.159   1_554 S
Yb41   O44     2.167   .     S
Yb41   O49     2.161   .     S
Yb41   O57     2.146   .     S
Yb41   Yb43    2.849   1_564 S
Yb41   O50     2.145   1_554 S
Yb41   O51     2.166   1_554 S
Yb41   O56     2.132   1_554 S
Yb41   O59     2.113   1_565 S
C42    O56     1.278   .     A
C42    O57     1.284   1_556 A
C42    C330    1.477   1_556 S
Yb43   O52     2.154   .     S
Yb43   O53     2.167   .     S
Yb43   O58     2.171   .     S
Yb43   O40     2.159   1_556 S
Yb43   Yb41    2.849   1_546 S
Yb43   O47     2.124   1_556 S
Yb43   O50     2.119   1_545 S
Yb43   O59     2.139   1_556 S
O44    C46     1.303   1_565 A
C45    O59     1.391   .     S
C45    C232    1.476   .     S
C45    O58     1.231   1_554 D
C46    O44     1.303   1_545 A
C46    C140    1.482   1_545 S
O47    C48     1.276   .     A
O47    Yb43    2.124   1_554 S
C48    O52     1.285   1_554 A
C48    C384    1.478   1_554 S
O49    C54     1.229   .     D
O50    Yb41    2.145   1_556 S
O50    Yb43    2.119   1_565 S
O50    C54     1.390   1_556 S
O51    Yb41    2.166   1_556 S
O51    C55     1.309   1_565 A
O52    C48     1.285   1_556 A
O53    C55     1.308   .     A
C54    C292    1.470   .     S
C54    O50     1.390   1_554 S
C55    C156    1.484   .     S
C55    O51     1.309   1_545 A
O56    Yb41    2.132   1_556 S
O57    C42     1.284   1_554 A
O58    C45     1.231   1_556 D
O59    Yb41    2.113   1_545 S
O59    Yb43    2.139   1_554 S
C60    C61     1.404   .     A
C60    C65     1.410   .     A
C60    C66     1.507   .     S
C61    C62     1.396   .     A
C61    H67     1.084   .     S
C62    C63     1.396   .     A
C62    H68     1.082   .     S
C63    C64     1.403   .     A
C63    H69     1.084   .     S
C64    C65     1.406   .     A
C65    H70     1.083   .     S
C66    H71     1.113   .     S
C66    H72     1.112   .     S
C66    N95     1.468   .     S
C73    C74     1.412   .     A
C73    C75     1.508   .     S
C73    C78     1.404   .     A
C74    C80     1.410   .     A
C74    H84     1.084   .     S
C75    H85     1.113   .     S
C75    H92     1.112   .     S
C75    N96     1.468   .     S
C76    C77     1.531   .     S
C76    H88     1.113   .     S
C76    H91     1.113   .     S
C76    N96     1.466   .     S
C77    C87     1.531   .     S
C77    H89     1.112   .     S
C77    H90     1.112   .     S
C78    C79     1.394   .     A
C78    H81     1.083   .     S
C79    H82     1.082   .     S
C79    C97     1.395   .     A
C80    C97     1.404   .     A
H83    C97     1.084   .     S
C86    C87     1.529   .     S
C86    H93     1.112   .     S
C86    H94     1.113   .     S
C86    N95     1.465   .     S
C98    C99     1.407   .     A
C98    C103    1.400   .     A
C98    C104    1.505   .     S
C99    C100    1.398   .     A
C99    H105    1.082   .     S
C100   C101    1.397   .     A
C100   H106    1.083   .     S
C101   C102    1.404   .     A
C101   H107    1.083   .     S
C102   C103    1.403   .     A
C103   H108    1.084   1_455 S
C104   H109    1.115   .     S
C104   N133    1.464   .     S
C104   H110    1.111   1_455 S
H108   C103    1.084   1_655 S
H110   C104    1.111   1_655 S
C111   C116    1.406   .     A
C111   C112    1.400   1_655 A
C111   C113    1.499   1_655 S
C112   H122    1.084   .     S
C112   C111    1.400   1_455 A
C112   C118    1.401   1_455 A
C113   H123    1.115   .     S
C113   H130    1.111   .     S
C113   C111    1.499   1_455 S
C113   N134    1.463   1_455 S
C114   C115    1.516   .     S
C114   H126    1.113   .     S
C114   H129    1.115   .     S
C114   N134    1.460   1_455 S
C115   C125    1.521   .     S
C115   H128    1.112   .     S
C115   H127    1.113   1_455 S
C116   C117    1.397   .     A
C116   H119    1.084   .     S
C117   H120    1.083   .     S
C117   C135    1.397   .     A
C118   C135    1.405   .     A
C118   C112    1.401   1_655 A
C118   C35     1.468   1_655 S
H121   C135    1.083   .     S
C124   C125    1.514   .     S
C124   H132    1.113   .     S
C124   N133    1.460   .     S
C124   H131    1.112   1_455 S
H127   C115    1.113   1_655 S
H131   C124    1.112   1_655 S
N134   C113    1.463   1_655 S
N134   C114    1.460   1_655 S
C136   C137    1.403   .     A
C136   C141    1.406   .     A
C136   C142    1.504   .     S
C137   C138    1.394   .     A
C137   H143    1.083   .     S
C138   C139    1.395   .     A
C138   H144    1.082   .     S
C139   C140    1.407   .     A
C139   H145    1.083   .     S
C140   C141    1.410   .     A
C140   C46     1.482   1_565 S
C141   H146    1.083   .     S
C142   H147    1.113   .     S
C142   H148    1.113   .     S
C142   N171    1.465   .     S
C149   C150    1.407   .     A
C149   C151    1.505   .     S
C149   C154    1.403   .     A
C150   C156    1.410   .     A
C150   H160    1.083   .     S
C151   H161    1.112   .     S
C151   H168    1.113   .     S
C151   N172    1.465   .     S
C152   H164    1.113   .     S
C152   H167    1.114   .     S
C152   N172    1.464   .     S
C152   C153    1.525   1_545 S
C153   H165    1.112   .     S
C153   H166    1.112   .     S
C153   C152    1.525   1_565 S
C153   C163    1.526   1_565 S
C154   C155    1.395   .     A
C154   H157    1.083   .     S
C155   H158    1.082   .     S
C155   C173    1.396   .     A
C156   C173    1.407   .     A
H159   C173    1.083   .     S
C162   H169    1.112   .     S
C162   H170    1.113   .     S
C162   N171    1.462   .     S
C162   C163    1.523   1_565 S
C163   C153    1.526   1_545 S
C163   C162    1.523   1_545 S
C174   C175    1.402   .     A
C174   C179    1.404   .     A
C174   C180    1.500   .     S
C175   C176    1.396   .     A
C175   H181    1.083   .     S
C176   C177    1.397   .     A
C176   H182    1.081   .     S
C177   C178    1.403   .     A
C177   H183    1.083   .     S
C178   C179    1.402   .     A
C178   C5      1.470   1_556 S
C179   H184    1.083   .     S
C180   H185    1.115   .     S
C180   H186    1.112   .     S
C180   N209    1.463   .     S
C187   C188    1.404   .     A
C187   C189    1.501   .     S
C187   C192    1.404   .     A
C188   C194    1.405   .     A
C188   H198    1.084   .     S
C189   H199    1.114   .     S
C189   H206    1.111   .     S
C189   N210    1.465   .     S
C190   H202    1.113   .     S
C190   H205    1.112   .     S
C190   N210    1.462   .     S
C190   C191    1.529   1_554 S
C191   H203    1.112   .     S
C191   H204    1.111   .     S
C191   C190    1.529   1_556 S
C191   C201    1.529   1_556 S
C192   C193    1.396   .     A
C192   H195    1.083   .     S
C193   H196    1.082   .     S
C193   C211    1.397   .     A
C194   C211    1.406   .     A
H197   C211    1.083   .     S
C200   H207    1.112   .     S
C200   H208    1.112   .     S
C200   N209    1.458   .     S
C200   C201    1.524   1_556 S
C201   C191    1.529   1_554 S
C201   C200    1.524   1_554 S
C212   C213    1.406   .     A
C212   C217    1.406   .     A
C212   C218    1.505   .     S
C213   C214    1.396   .     A
C213   H219    1.084   .     S
C214   C215    1.396   .     A
C214   H220    1.082   .     S
C215   C216    1.402   .     A
C215   H221    1.082   .     S
C216   C217    1.403   .     A
C216   C25     1.464   1_556 S
C217   H222    1.084   .     S
C218   H223    1.113   .     S
C218   H224    1.112   .     S
C218   N247    1.468   .     S
C225   C226    1.410   .     A
C225   C227    1.508   .     S
C225   C230    1.405   .     A
C226   C232    1.407   .     A
C226   H236    1.083   .     S
C227   H237    1.114   .     S
C227   H244    1.111   .     S
C227   N248    1.468   .     S
C228   H240    1.112   .     S
C228   H243    1.112   .     S
C228   N248    1.467   .     S
C228   C229    1.525   1_554 S
C229   H241    1.113   .     S
C229   H242    1.112   .     S
C229   C228    1.525   1_556 S
C229   C239    1.528   1_556 S
C230   C231    1.393   .     A
C230   H233    1.080   .     S
C231   H234    1.083   .     S
C231   C249    1.393   .     A
C232   C249    1.405   .     A
H235   C249    1.083   .     S
C238   H245    1.112   .     S
C238   H246    1.110   .     S
C238   N247    1.465   .     S
C238   C239    1.523   1_556 S
C239   C229    1.528   1_554 S
C239   C238    1.523   1_554 S
C250   C251    1.404   .     A
C250   C255    1.409   .     A
C250   C256    1.507   .     S
C251   C252    1.394   .     A
C251   H257    1.080   .     S
C252   C253    1.393   .     A
C252   H258    1.081   .     S
C253   C254    1.402   .     A
C253   H259    1.084   .     S
C254   C255    1.405   .     A
C254   C28     1.470   1_554 S
C255   H260    1.082   1_554 S
C256   H261    1.115   .     S
C256   H262    1.110   .     S
C256   N285    1.469   .     S
H260   C255    1.082   1_556 S
C263   C264    1.403   .     A
C263   C265    1.503   .     S
C263   C268    1.404   .     A
C264   C270    1.404   .     A
C264   H274    1.084   1_556 S
C265   H275    1.112   .     S
C265   H282    1.114   .     S
C265   N286    1.466   .     S
C266   H281    1.113   .     S
C266   N286    1.468   .     S
C266   C267    1.535   1_556 S
C266   H278    1.111   1_556 S
C267   C277    1.528   .     S
C267   H280    1.112   .     S
C267   C266    1.535   1_554 S
C267   H279    1.112   1_554 S
C268   C269    1.398   .     A
C268   H271    1.083   .     S
C269   H272    1.083   .     S
C269   C287    1.398   .     A
C270   C287    1.403   .     A
H273   C287    1.083   .     S
H274   C264    1.084   1_554 S
C276   C277    1.524   .     S
C276   H283    1.112   .     S
C276   H284    1.111   .     S
C276   N285    1.465   .     S
H278   C266    1.111   1_554 S
H279   C267    1.112   1_556 S
C288   C289    1.405   .     A
C288   C293    1.407   .     A
C288   C294    1.506   .     S
C289   C290    1.396   .     A
C289   H295    1.081   .     S
C290   C291    1.396   .     A
C290   H296    1.083   .     S
C291   C292    1.403   .     A
C291   H297    1.083   .     S
C292   C293    1.404   .     A
C293   H298    1.084   .     S
C294   H299    1.115   .     S
C294   H300    1.110   .     S
C294   N323    1.469   .     S
C301   C302    1.407   .     A
C301   C303    1.502   .     S
C301   C306    1.404   .     A
C302   C308    1.407   .     A
C302   H312    1.084   .     S
C303   H313    1.112   .     S
C303   H320    1.111   .     S
C303   N324    1.463   .     S
C304   H316    1.111   .     S
C304   H319    1.114   .     S
C304   N324    1.462   .     S
C304   C305    1.523   1_556 S
C305   H317    1.113   .     S
C305   H318    1.112   .     S
C305   C304    1.523   1_554 S
C305   C315    1.525   1_554 S
C306   C307    1.394   .     A
C306   H309    1.083   .     S
C307   H310    1.082   .     S
C307   C325    1.395   .     A
C308   C325    1.404   .     A
C308   C34     1.473   1_556 S
H311   C325    1.081   .     S
C314   H321    1.112   .     S
C314   H322    1.111   .     S
C314   N323    1.462   .     S
C314   C315    1.525   1_554 S
C315   C305    1.525   1_556 S
C315   C314    1.525   1_556 S
C326   C327    1.403   .     A
C326   C331    1.406   .     A
C326   C332    1.504   .     S
C327   C328    1.397   .     A
C327   H333    1.083   .     S
C328   C329    1.397   .     A
C328   H334    1.083   .     S
C329   C330    1.405   .     A
C329   H335    1.083   .     S
C330   C331    1.406   .     A
C330   C42     1.477   1_554 S
C331   H336    1.083   .     S
C332   H337    1.113   .     S
C332   H338    1.113   .     S
C332   N361    1.466   .     S
C339   C340    1.405   .     A
C339   C341    1.505   .     S
C339   C344    1.405   .     A
C340   C346    1.403   .     A
C340   H350    1.084   .     S
C341   H351    1.113   .     S
C341   H358    1.113   .     S
C341   N362    1.464   .     S
C342   H354    1.113   .     S
C342   H357    1.114   .     S
C342   N362    1.465   .     S
C342   C343    1.527   1_556 S
C343   H355    1.112   .     S
C343   H356    1.112   .     S
C343   C342    1.527   1_554 S
C343   C353    1.529   1_554 S
C344   C345    1.399   .     A
C344   H347    1.083   .     S
C345   H348    1.082   .     S
C345   C363    1.398   .     A
C346   C363    1.400   .     A
H349   C363    1.083   .     S
C352   H359    1.113   .     S
C352   H360    1.113   .     S
C352   N361    1.463   .     S
C352   C353    1.526   1_554 S
C353   C343    1.529   1_556 S
C353   C352    1.526   1_556 S
C364   C365    1.405   .     A
C364   C369    1.405   .     A
C364   C370    1.506   .     S
C365   C366    1.396   .     A
C365   H371    1.083   .     S
C366   C367    1.396   .     A
C366   H372    1.082   .     S
C367   C368    1.404   .     A
C367   H373    1.083   .     S
C368   C369    1.406   .     A
C369   H374    1.084   .     S
C370   H375    1.114   .     S
C370   H376    1.111   .     S
C370   N399    1.469   .     S
C377   C378    1.408   .     A
C377   C379    1.504   .     S
C377   C382    1.404   .     A
C378   C384    1.407   .     A
C378   H388    1.084   .     S
C379   H389    1.113   .     S
C379   H396    1.112   .     S
C379   N400    1.466   .     S
C380   H392    1.113   .     S
C380   H395    1.113   .     S
C380   N400    1.465   .     S
C380   C381    1.526   1_556 S
C381   C391    1.528   .     S
C381   H393    1.112   .     S
C381   H394    1.112   .     S
C381   C380    1.526   1_554 S
C382   C383    1.395   .     A
C382   H385    1.083   .     S
C383   H386    1.083   .     S
C383   C401    1.396   .     A
C384   C401    1.407   .     A
C384   C48     1.478   1_556 S
H387   C401    1.083   .     S
C390   C391    1.522   .     S
C390   H397    1.111   .     S
C390   H398    1.113   .     S
C390   N399    1.464   .     S
