data_kag+N205+E59
_audit_creation_date              2025-01-21
_audit_creation_method            'Materials Studio'
_symmetry_space_group_name_H-M    'P1'
_symmetry_Int_Tables_number       1
_symmetry_cell_setting            triclinic
loop_
_symmetry_equiv_pos_as_xyz
  x,y,z
_cell_length_a                    49.0601
_cell_length_b                    49.3811
_cell_length_c                    19.6355
_cell_angle_alpha                 93.5096
_cell_angle_beta                  92.0817
_cell_angle_gamma                 120.9357
loop_
_atom_site_label
_atom_site_type_symbol
_atom_site_fract_x
_atom_site_fract_y
_atom_site_fract_z
_atom_site_U_iso_or_equiv
_atom_site_adp_type
_atom_site_occupancy
Y0     Y     0.52945   0.47023   0.01057   0.00000  Uiso   1.00
Y1     Y     0.47125   0.52292   0.95548   0.00000  Uiso   1.00
C2     C     0.51296   0.58599  -0.02631   0.00000  Uiso   1.00
C3     C     0.50402   0.51013   0.08098   0.00000  Uiso   1.00
C4     C     0.58842   0.48086   0.99495   0.00000  Uiso   1.00
C5     C     0.48295   0.40939   1.01653   0.00000  Uiso   1.00
C6     C     0.50146   0.48804   0.88472   0.00000  Uiso   1.00
C7     C     0.40913   0.50071  -0.07687   0.00000  Uiso   1.00
O8     O     0.51098   0.56863   0.92167   0.00000  Uiso   1.00
O9     O     0.49263   0.57098   0.01542   0.00000  Uiso   1.00
O10    O     0.52437   0.50175   0.09158   0.00000  Uiso   1.00
O11    O     0.48367   0.49682   0.02955   0.00000  Uiso   1.00
O12    O     0.56790   0.47361   0.94584   0.00000  Uiso   1.00
O13    O     0.57848   0.48267   0.05251   0.00000  Uiso   1.00
O14    O     0.50070   0.42714   0.06799   0.00000  Uiso   1.00
O15    O     0.48947   0.42296   0.96208   0.00000  Uiso   1.00
O16    O     0.48232   0.49746   0.87115   0.00000  Uiso   1.00
O17    O     0.51815   0.49835   0.94146   0.00000  Uiso   1.00
O18    O     0.42013   0.50118  -0.01734   0.00000  Uiso   1.00
O19    O     0.43039   0.51310   0.88176   0.00000  Uiso   1.00
Y20    Y     0.06180   0.53327   0.02919   0.00000  Uiso   1.00
Y21    Y     0.94645   0.48110   0.98095   0.00000  Uiso   1.00
C22    C     0.93664   0.52863   0.95613   0.00000  Uiso   1.00
C23    C     0.00043   0.51732   0.10196   0.00000  Uiso   1.00
C24    C     0.10936   0.58810   0.99001   0.00000  Uiso   1.00
C25    C     0.07868   0.49229   0.06890   0.00000  Uiso   1.00
C26    C     0.00638   0.49301   0.91098   0.00000  Uiso   1.00
C27    C     0.89273   0.42772   0.00610   0.00000  Uiso   1.00
O28    O     0.93576   0.50934   0.90976   0.00000  Uiso   1.00
O29    O     0.94324   0.52379   0.01503   0.00000  Uiso   1.00
O30    O     0.03061   0.53617   0.10837   0.00000  Uiso   1.00
O31    O     0.98847   0.49435   0.05551   0.00000  Uiso   1.00
O32    O     0.09349   0.56304   0.95048   0.00000  Uiso   1.00
O33    O     0.10063   0.58489   0.05019   0.00000  Uiso   1.00
O34    O     0.08022   0.51420   0.10839   0.00000  Uiso   1.00
O35    O     0.06837   0.49144   1.00850   0.00000  Uiso   1.00
O36    O     0.97616   0.47551   0.90170   0.00000  Uiso   1.00
O37    O     0.01790   0.51559   0.95806   0.00000  Uiso   1.00
O38    O     0.91136   0.44888   0.05215   0.00000  Uiso   1.00
O39    O     0.90242   0.43353   0.94711   0.00000  Uiso   1.00
Y40    Y     0.53928   0.05927   0.01370   0.00000  Uiso   1.00
Y41    Y     0.46662   0.94495   0.98001   0.00000  Uiso   1.00
C42    C     0.41048   0.93807   0.93652   0.00000  Uiso   1.00
C43    C     0.48974   0.00333   0.09011   0.00000  Uiso   1.00
C44    C     0.53810   0.10758   0.95984   0.00000  Uiso   1.00
C45    C     0.59713   0.07204   0.06229   0.00000  Uiso   1.00
C46    C     0.51815  -0.00021   0.90707   0.00000  Uiso   1.00
C47    C     0.46065   0.89152   0.02317   0.00000  Uiso   1.00
O48    O     0.42809   0.93389   0.89758   0.00000  Uiso   1.00
O49    O     0.42208   0.94633  -0.00231   0.00000  Uiso   1.00
O50    O     0.50399   0.03347   0.09187   0.00000  Uiso   1.00
O51    O     0.49909   0.98877   0.05108   0.00000  Uiso   1.00
O52    O     0.54487   0.08929   0.92742   0.00000  Uiso   1.00
O53    O     0.53179   0.10091   0.02055   0.00000  Uiso   1.00
O54    O     0.57874   0.07660   0.09787   0.00000  Uiso   1.00
O55    O     0.58564   0.06084   1.00176   0.00000  Uiso   1.00
O56    O     0.50343   0.96963   0.90388   0.00000  Uiso   1.00
O57    O     0.50845   0.01399   0.94608   0.00000  Uiso   1.00
O58    O     0.46156   0.91317   0.06246   0.00000  Uiso   1.00
O59    O     0.46407   0.89800   0.96174   0.00000  Uiso   1.00
C60    C     0.51611   0.49907   0.66356   0.00000  Uiso   1.00
C61    C     0.53736   0.51939   0.55559   0.00000  Uiso   1.00
H62    H     0.45605   0.52952   0.35057   0.00000  Uiso   1.00
C63    C     0.48046   0.49224   0.56579   0.00000  Uiso   1.00
C64    C     0.48525   0.48803   0.63396   0.00000  Uiso   1.00
N65    N     0.50950   0.53245   0.19783   0.00000  Uiso   1.00
N66    N     0.49859   0.46865   0.76574   0.00000  Uiso   1.00
O67    O     0.45947   0.51799   0.22092   0.00000  Uiso   1.00
O68    O     0.54670   0.51312   0.76796   0.00000  Uiso   1.00
H69    H     0.48393   0.53775   0.11472   0.00000  Uiso   1.00
H70    H     0.52655   0.55950   0.11372   0.00000  Uiso   1.00
H71    H     0.46506   0.52364   0.47051   0.00000  Uiso   1.00
H72    H     0.52629   0.50567   0.29660   0.00000  Uiso   1.00
H73    H     0.53555   0.50030   0.41624   0.00000  Uiso   1.00
H74    H     0.53221   0.53810   0.21637   0.00000  Uiso   1.00
H75    H     0.56626   0.52428   0.64542   0.00000  Uiso   1.00
H76    H     0.52447   0.46343   0.84728   0.00000  Uiso   1.00
H77    H     0.48179   0.43977   0.84682   0.00000  Uiso   1.00
H78    H     0.55790   0.53194   0.52629   0.00000  Uiso   1.00
H79    H     0.46468   0.47647   0.66342   0.00000  Uiso   1.00
H80    H     0.45633   0.48292   0.54415   0.00000  Uiso   1.00
H81    H     0.47780   0.45148   0.73702   0.00000  Uiso   1.00
C82    C     0.47345   0.52311   0.36429   0.00000  Uiso   1.00
C83    C     0.48557   0.52296   0.24149   0.00000  Uiso   1.00
C84    C     0.50571   0.53670   0.12563   0.00000  Uiso   1.00
C85    C     0.50119   0.51172   0.45289   0.00000  Uiso   1.00
C86    C     0.49099   0.51888   0.31411   0.00000  Uiso   1.00
C87    C     0.47856   0.51967   0.43291   0.00000  Uiso   1.00
C88    C     0.51325   0.51040   0.33400   0.00000  Uiso   1.00
C89    C     0.51844   0.50710   0.40265   0.00000  Uiso   1.00
C90    C     0.54216   0.51519   0.62386   0.00000  Uiso   1.00
C91    C     0.52149   0.49427   0.73568   0.00000  Uiso   1.00
C92    C     0.50204   0.46340   0.83733   0.00000  Uiso   1.00
C93    C     0.50643   0.50776   0.52569   0.00000  Uiso   1.00
C94    C     0.98761   0.52444   0.34416   0.00000  Uiso   1.00
C95    C     0.97523   0.51955   0.46338   0.00000  Uiso   1.00
H96    H     0.00897   0.44328   0.61909   0.00000  Uiso   1.00
C97    C     0.01244   0.50530   0.42176   0.00000  Uiso   1.00
C98    C     0.00849   0.51344   0.35680   0.00000  Uiso   1.00
N99    N     0.02545   0.49410   0.79925   0.00000  Uiso   1.00
N100   N     0.98477   0.51647   0.21742   0.00000  Uiso   1.00
O101   O     0.00088   0.44403   0.75013   0.00000  Uiso   1.00
O102   O     0.97611   0.55292   0.26935   0.00000  Uiso   1.00
H103   H     0.02000   0.46089   0.87091   0.00000  Uiso   1.00
H104   H     0.05248   0.50090   0.89074   0.00000  Uiso   1.00
H105   H     0.00166   0.45783   0.50622   0.00000  Uiso   1.00
H106   H     1.00372   0.52165   0.71350   0.00000  Uiso   1.00
H107   H     0.99815   0.53714   0.60110   0.00000  Uiso   1.00
H108   H     0.03601   0.51819   0.79256   0.00000  Uiso   1.00
H109   H     0.95526   0.53642   0.39029   0.00000  Uiso   1.00
H110   H     0.98544   0.54765   0.14579   0.00000  Uiso   1.00
H111   H     0.95421   0.50648   0.12978   0.00000  Uiso   1.00
H112   H     0.96171   0.52165   0.50360   0.00000  Uiso   1.00
H113   H     0.02222   0.51157   0.31684   0.00000  Uiso   1.00
H114   H     0.02899   0.49725   0.42991   0.00000  Uiso   1.00
H115   H     0.98719   0.49686   0.22280   0.00000  Uiso   1.00
C116   C     0.00659   0.46379   0.61572   0.00000  Uiso   1.00
C117   C     0.01102   0.47199   0.74370   0.00000  Uiso   1.00
C118   C     0.02735   0.48617   0.86918   0.00000  Uiso   1.00
C119   C    -0.00036   0.49886   0.54454   0.00000  Uiso   1.00
C120   C     0.00754   0.48161   0.67532   0.00000  Uiso   1.00
C121   C     0.00270   0.47231   0.55110   0.00000  Uiso   1.00
C122   C     1.00411   0.50793   0.66881   0.00000  Uiso   1.00
C123   C     1.00032   0.51651   0.60422   0.00000  Uiso   1.00
C124   C     0.97140   0.52787   0.39843   0.00000  Uiso   1.00
C125   C     0.98270   0.53241   0.27488   0.00000  Uiso   1.00
C126   C     0.97967   0.52281   0.14767   0.00000  Uiso   1.00
C127   C    -0.00431   0.50801   0.47574   0.00000  Uiso   1.00
C128   C     0.52239   0.01993   0.68129   0.00000  Uiso   1.00
C129   C     0.51902   0.03577   0.56770   0.00000  Uiso   1.00
H130   H     0.43059   0.93807   0.35804   0.00000  Uiso   1.00
C131   C     0.49641   0.98025   0.58372   0.00000  Uiso   1.00
C132   C     0.50598   0.98810   0.65361   0.00000  Uiso   1.00
N133   N     0.47014  -0.00634   0.20311   0.00000  Uiso   1.00
N134   N     0.53837   0.01035   0.79518   0.00000  Uiso   1.00
O135   O     0.44453   0.94200   0.23091   0.00000  Uiso   1.00
O136   O     0.53458   0.05317   0.78159   0.00000  Uiso   1.00
H137   H     0.45038   0.95972   0.11628   0.00000  Uiso   1.00
H138   H     0.44326  -0.00804   0.11496   0.00000  Uiso   1.00
H139   H     0.44753   0.95233   0.47970   0.00000  Uiso   1.00
H140   H     0.51613   0.02248   0.31049   0.00000  Uiso   1.00
H141   H     0.53345   0.03652   0.43183   0.00000  Uiso   1.00
H142   H     0.48119   0.01753   0.22162   0.00000  Uiso   1.00
H143   H     0.54124   0.06839   0.65722   0.00000  Uiso   1.00
H144   H     0.55820   0.04374   0.88279   0.00000  Uiso   1.00
H145   H     0.56493   1.01140   0.88348   0.00000  Uiso   1.00
H146   H     0.52392   0.05465   0.53580   0.00000  Uiso   1.00
H147   H     0.49983   0.96906   0.68585   0.00000  Uiso   1.00
H148   H     0.48421   0.95553   0.56411   0.00000  Uiso   1.00
H149   H     0.53712   0.98995   0.77302   0.00000  Uiso   1.00
C150   C     0.45310   0.95962   0.37363   0.00000  Uiso   1.00
C151   C     0.46138   0.97006   0.25087   0.00000  Uiso   1.00
C152   C     0.46115   0.98554   0.12956   0.00000  Uiso   1.00
C153   C     0.49197   0.99555   0.46567   0.00000  Uiso   1.00
C154   C     0.47185   0.97927   0.32465   0.00000  Uiso   1.00
C155   C     0.46292   0.96772   0.44331   0.00000  Uiso   1.00
C156   C     0.50075   0.00717   0.34686   0.00000  Uiso   1.00
C157   C     0.51072   0.01520   0.41654   0.00000  Uiso   1.00
C158   C     0.52873   0.04364   0.63747   0.00000  Uiso   1.00
C159   C     0.53204   0.02879   0.75564   0.00000  Uiso   1.00
C160   C     0.54709   0.01790   0.86889   0.00000  Uiso   1.00
C161   C     0.50268   0.00397   0.53987   0.00000  Uiso   1.00
C162   C     0.17536   0.50076   0.05921   0.00000  Uiso   1.00
C163   C     0.23132   0.51823   0.08561   0.00000  Uiso   1.00
H164   H     0.27144   0.43361   0.98879   0.00000  Uiso   1.00
C165   C     0.20172   0.48063   0.98753   0.00000  Uiso   1.00
C166   C     0.17477   0.48212   1.00137   0.00000  Uiso   1.00
N167   N     0.35782   0.49634  -0.05785   0.00000  Uiso   1.00
N168   N     0.11620   0.47380   0.06187   0.00000  Uiso   1.00
O169   O     0.33144   0.45278  -0.00179   0.00000  Uiso   1.00
O170   O     0.14874   0.52223   0.11621   0.00000  Uiso   1.00
H171   H     0.36397   0.45846   0.90378   0.00000  Uiso   1.00
H172   H     0.37137   0.48775   0.84658   0.00000  Uiso   1.00
H173   H     0.22774   0.44230   1.00941   0.00000  Uiso   1.00
H174   H     0.33762   0.53484   0.00879   0.00000  Uiso   1.00
H175   H     0.29348   0.54345   0.02952   0.00000  Uiso   1.00
H176   H     0.36099   0.51815  -0.06893   0.00000  Uiso   1.00
H177   H     0.20564   0.53438   0.14446   0.00000  Uiso   1.00
H178   H     0.09151   0.47222   0.14899   0.00000  Uiso   1.00
H179   H     0.06724   0.44485   0.07731   0.00000  Uiso   1.00
H180   H     0.25281   0.53186   0.11953   0.00000  Uiso   1.00
H181   H     0.15357   0.46842   0.96680   0.00000  Uiso   1.00
H182   H     0.20037   0.46545   0.94366   0.00000  Uiso   1.00
H183   H     0.11363   0.45440   0.03153   0.00000  Uiso   1.00
C184   C     0.27667   0.45773   0.99793   0.00000  Uiso   1.00
C185   C     0.33346   0.47699  -0.01951   0.00000  Uiso   1.00
C186   C     0.37440   0.48433   0.90112   0.00000  Uiso   1.00
C187   C     0.25718   0.49352   0.01972   0.00000  Uiso   1.00
C188   C     0.30795   0.48348  -0.00334   0.00000  Uiso   1.00
C189   C     0.25160   0.46267   1.00898   0.00000  Uiso   1.00
C190   C     0.31374   0.51447   0.00842   0.00000  Uiso   1.00
C191   C     0.28856   0.51942   0.02063   0.00000  Uiso   1.00
C192   C     0.20427   0.51955   0.09987   0.00000  Uiso   1.00
C193   C     0.14602   0.49987   0.07986   0.00000  Uiso   1.00
C194   C     0.08749   0.46934   0.09221   0.00000  Uiso   1.00
C195   C     0.23000   0.49808   0.03038   0.00000  Uiso   1.00
C196   C     0.70195   0.16336   0.08275   0.00000  Uiso   1.00
C197   C     0.75577   0.20933   0.08957   0.00000  Uiso   1.00
H198   H     0.79218   0.29296   0.87148   0.00000  Uiso   1.00
C199   C     0.71534   0.20543   0.00826   0.00000  Uiso   1.00
C200   C     0.69307   0.17625   0.03058   0.00000  Uiso   1.00
N201   N     0.86092   0.37026  -0.00086   0.00000  Uiso   1.00
N202   N     0.65389   0.10917   0.06561   0.00000  Uiso   1.00
O203   O     0.83106   0.35294   0.89632   0.00000  Uiso   1.00
O204   O     0.68145   0.12896   0.16838   0.00000  Uiso   1.00
H205   H     0.84211   0.40040   0.99193   0.00000  Uiso   1.00
H206   H     0.85829   0.40039   0.07550   0.00000  Uiso   1.00
H207   H     0.75469   0.24071   0.90723   0.00000  Uiso   1.00
H208   H     0.82999   0.32679   0.08165   0.00000  Uiso   1.00
H209   H     0.79227   0.27502   0.11728   0.00000  Uiso   1.00
H210   H     0.87536   0.36452   0.02767   0.00000  Uiso   1.00
H211   H     0.74100   0.17085   0.15225   0.00000  Uiso   1.00
H212   H     0.63021   0.07994   0.14557   0.00000  Uiso   1.00
H213   H     0.63285   0.05979   1.06898   0.00000  Uiso   1.00
H214   H     0.78000   0.22154   0.11265   0.00000  Uiso   1.00
H215   H     0.66875   0.16426   1.00811   0.00000  Uiso   1.00
H216   H     0.70760   0.21515   0.96922   0.00000  Uiso   1.00
H217   H     0.65306   0.11174   1.01326   0.00000  Uiso   1.00
C218   C     0.79259   0.28923   0.92522   0.00000  Uiso   1.00
C219   C     0.83564   0.34625   0.95270   0.00000  Uiso   1.00
C220   C     0.86173   0.39954   0.01993   0.00000  Uiso   1.00
C221   C     0.77048   0.25370   0.01512   0.00000  Uiso   1.00
C222   C     0.81428   0.31401   0.97359   0.00000  Uiso   1.00
C223   C     0.77098   0.25938   0.94573   0.00000  Uiso   1.00
C224   C     0.81405   0.30817   0.04279   0.00000  Uiso   1.00
C225   C     0.79239   0.27841   0.06330   0.00000  Uiso   1.00
C226   C     0.73349   0.18028   0.11213   0.00000  Uiso   1.00
C227   C     0.67844   0.13290   0.10842   0.00000  Uiso   1.00
C228   C     0.62924   0.07917   0.08881   0.00000  Uiso   1.00
C229   C     0.74695   0.22233   0.03756   0.00000  Uiso   1.00
C230   C     0.68956   0.49266   0.05132   0.00000  Uiso   1.00
C231   C     0.73860   0.49166   0.06429   0.00000  Uiso   1.00
H232   H     0.84727   0.58554   0.92917   0.00000  Uiso   1.00
C233   C     0.73237   0.52127   0.97765   0.00000  Uiso   1.00
C234   C     0.70213   0.51231   0.99803   0.00000  Uiso   1.00
N235   N     0.89772   0.54462   0.96289   0.00000  Uiso   1.00
N236   N     0.64111   0.49830   1.04894   0.00000  Uiso   1.00
O237   O     0.88888   0.57148   0.88538   0.00000  Uiso   1.00
O238   O     0.64452   0.46246   0.11141   0.00000  Uiso   1.00
H239   H     0.93173   0.55815   0.88803   0.00000  Uiso   1.00
H240   H     0.94756   0.57636  -0.02602   0.00000  Uiso   1.00
H241   H     0.79429   0.56851   0.96512   0.00000  Uiso   1.00
H242   H     0.83621   0.49637   0.97632   0.00000  Uiso   1.00
H243   H     0.78267   0.47863   0.00971   0.00000  Uiso   1.00
H244   H     0.89004   0.53218   0.00627   0.00000  Uiso   1.00
H245   H     0.69899   0.46693   0.12497   0.00000  Uiso   1.00
H246   H     0.61905   0.46463   0.96216   0.00000  Uiso   1.00
H247   H     0.63214   0.50503   0.94789   0.00000  Uiso   1.00
H248   H     0.75245   0.48384   0.09180   0.00000  Uiso   1.00
H249   H     0.68856   0.52066   0.97138   0.00000  Uiso   1.00
H250   H     0.74079   0.53569   0.93511   0.00000  Uiso   1.00
H251   H     0.64782   0.52070   1.07206   0.00000  Uiso   1.00
C252   C     0.83340   0.56223   0.94709   0.00000  Uiso   1.00
C253   C     0.87876   0.55366   0.93070   0.00000  Uiso   1.00
C254   C     0.92972   0.55406   0.94317   0.00000  Uiso   1.00
C255   C     0.78401   0.52213   0.99056   0.00000  Uiso   1.00
C256   C     0.84616   0.54262   0.95131   0.00000  Uiso   1.00
C257   C     0.80287   0.55229   0.96716   0.00000  Uiso   1.00
C258   C     0.82743   0.51245   0.97445   0.00000  Uiso   1.00
C259   C     0.79667   0.50228   0.99360   0.00000  Uiso   1.00
C260   C     0.70802   0.48216   0.08379   0.00000  Uiso   1.00
C261   C     0.65736   0.48313   0.07266   0.00000  Uiso   1.00
C262   C     0.62105   0.48683   0.98469   0.00000  Uiso   1.00
C263   C     0.75126   0.51148   1.01106   0.00000  Uiso   1.00
C264   C     0.20504   0.69307   0.02722   0.00000  Uiso   1.00
C265   C     0.25862   0.73910   0.02749   0.00000  Uiso   1.00
H266   H     0.28070   0.82716   0.82684   0.00000  Uiso   1.00
C267   C     0.21377   0.74015   0.97529   0.00000  Uiso   1.00
C268   C     0.19315   0.70947   0.99274   0.00000  Uiso   1.00
N269   N     0.35375   0.90301   0.93611   0.00000  Uiso   1.00
N270   N     0.15006   0.64367   1.02196   0.00000  Uiso   1.00
O271   O     0.33747   0.87673   0.83121   0.00000  Uiso   1.00
O272   O     0.19454   0.64465   0.06494   0.00000  Uiso   1.00
H273   H     0.37692   0.93269   0.85657   0.00000  Uiso   1.00
H274   H     0.37637   0.95271  -0.06470   0.00000  Uiso   1.00
H275   H     0.24343   0.77627   0.86799   0.00000  Uiso   1.00
H276   H     0.33858   0.85512   0.01846   0.00000  Uiso   1.00
H277   H     0.30051   0.80491   0.06062   0.00000  Uiso   1.00
H278   H     0.35056   0.90281  -0.01160   0.00000  Uiso   1.00
H279   H     0.24796   0.69638   0.07122   0.00000  Uiso   1.00
H280   H     0.15372   0.61358  -0.05442   0.00000  Uiso   1.00
H281   H     0.12565   0.62548   0.92454   0.00000  Uiso   1.00
H282   H     0.28398   0.74981   0.04000   0.00000  Uiso   1.00
H283   H     0.16801   0.69846   0.97748   0.00000  Uiso   1.00
H284   H     0.20390   0.75209   0.94842   0.00000  Uiso   1.00
H285   H     0.13731   0.65425   1.03801   0.00000  Uiso   1.00
C286   C     0.28524   0.82263   0.87805   0.00000  Uiso   1.00
C287   C     0.33523   0.87597   0.89288   0.00000  Uiso   1.00
C288   C     0.37875   0.93285   0.91315   0.00000  Uiso   1.00
C289   C     0.26891   0.78664   0.96774   0.00000  Uiso   1.00
C290   C     0.31227   0.84555   0.91975   0.00000  Uiso   1.00
C291   C     0.26376   0.79358   0.90183   0.00000  Uiso   1.00
C292   C     0.31752   0.83856   0.98563   0.00000  Uiso   1.00
C293   C     0.29597   0.80949   1.00946   0.00000  Uiso   1.00
C294   C     0.23798   0.70842   0.04516   0.00000  Uiso   1.00
C295   C     0.18356   0.65953   0.04069   0.00000  Uiso   1.00
C296   C     0.13556   0.61817   0.96651   0.00000  Uiso   1.00
C297   C     0.24679   0.75511   0.99137   0.00000  Uiso   1.00
C298   C     0.52198   0.68759   0.03202   0.00000  Uiso   1.00
C299   C     0.53350   0.74177   0.05215   0.00000  Uiso   1.00
H300   H     0.46067   0.77833   0.88347   0.00000  Uiso   1.00
C301   C     0.48394   0.70158   0.99022   0.00000  Uiso   1.00
C302   C     0.49260   0.67896  -0.00219   0.00000  Uiso   1.00
N303   N     0.47742   0.85289   0.02285   0.00000  Uiso   1.00
N304   N     0.52379   0.64019  -0.01207   0.00000  Uiso   1.00
O305   O     0.44964   0.82122   0.92506   0.00000  Uiso   1.00
O306   O     0.54962   0.66764   0.08842   0.00000  Uiso   1.00
H307   H     0.42963   0.84197   1.02691   0.00000  Uiso   1.00
H308   H     0.45521   0.86199   0.10355   0.00000  Uiso   1.00
H309   H     0.47585   0.73930   0.90122   0.00000  Uiso   1.00
H310   H     0.49926   0.82193   0.08895   0.00000  Uiso   1.00
H311   H     0.51388   0.78252   0.10686   0.00000  Uiso   1.00
H312   H     0.50062   0.86542   0.04615   0.00000  Uiso   1.00
H313   H     0.56485   0.72645   0.08685   0.00000  Uiso   1.00
H314   H     0.55232   0.62391   0.03455   0.00000  Uiso   1.00
H315   H     0.55430   0.62707   0.94415   0.00000  Uiso   1.00
H316   H     0.54996   0.76604   0.07265   0.00000  Uiso   1.00
H317   H     0.47606   0.65467   0.97762   0.00000  Uiso   1.00
H318   H     0.46100   0.69415   0.96423   0.00000  Uiso   1.00
H319   H     0.50961   0.63796   0.94446   0.00000  Uiso   1.00
C320   C     0.47244   0.77967   0.93240   0.00000  Uiso   1.00
C321   C     0.46783   0.82599   0.97453   0.00000  Uiso   1.00
C322   C     0.45422   0.86072   0.04671   0.00000  Uiso   1.00
C323   C     0.49589   0.75766   0.00557   0.00000  Uiso   1.00
C324   C     0.47886   0.80346   0.98460   0.00000  Uiso   1.00
C325   C     0.48088   0.75710   0.94273   0.00000  Uiso   1.00
C326   C     0.49428   0.80429   0.04720   0.00000  Uiso   1.00
C327   C     0.50267   0.78164   0.05756   0.00000  Uiso   1.00
C328   C     0.54208   0.71912   0.06008   0.00000  Uiso   1.00
C329   C     0.53229   0.66433   0.03846   0.00000  Uiso   1.00
C330   C     0.53801   0.62036  -0.01393   0.00000  Uiso   1.00
C331   C     0.50449   0.73335   0.01643   0.00000  Uiso   1.00
C332   C     0.52750   0.20022   0.00303   0.00000  Uiso   1.00
C333   C     0.52697   0.24673   0.04978   0.00000  Uiso   1.00
H334   H     0.42445   0.26397   0.94612   0.00000  Uiso   1.00
C335   C     0.49287   0.21565   0.94844   0.00000  Uiso   1.00
C336   C     0.50428   0.19499   0.95147   0.00000  Uiso   1.00
N337   N     0.46842   0.35461   1.02207   0.00000  Uiso   1.00
N338   N     0.52302   0.14754   0.97138   0.00000  Uiso   1.00
O339   O     0.43611   0.32121   0.93278   0.00000  Uiso   1.00
O340   O     0.56735   0.18918   0.03124   0.00000  Uiso   1.00
H341   H     0.43870   0.36945   0.97536   0.00000  Uiso   1.00
H342   H     0.44382   0.37489   0.06701   0.00000  Uiso   1.00
H343   H     0.44364   0.22755   0.95641   0.00000  Uiso   1.00
H344   H     0.51744   0.34247   0.02117   0.00000  Uiso   1.00
H345   H     0.53702   0.30632   0.02919   0.00000  Uiso   1.00
H346   H     0.48513   0.35921   0.06238   0.00000  Uiso   1.00
H347   H     0.55676   0.23098   0.09237   0.00000  Uiso   1.00
H348   H     0.56274   0.15276  -0.07978   0.00000  Uiso   1.00
H349   H     0.52413   0.12535   0.87776   0.00000  Uiso   1.00
H350   H     0.53574   0.26627   0.08915   0.00000  Uiso   1.00
H351   H     0.49559   0.17546   0.91208   0.00000  Uiso   1.00
H352   H     0.47585   0.21150   0.90646   0.00000  Uiso   1.00
H353   H     0.49819   0.13492   0.97124   0.00000  Uiso   1.00
C354   C     0.44904   0.27344   0.96462   0.00000  Uiso   1.00
C355   C     0.45704   0.32779   0.97747   0.00000  Uiso   1.00
C356   C     0.45620   0.37611   1.02001   0.00000  Uiso   1.00
C357   C     0.49193   0.26391   0.99372   0.00000  Uiso   1.00
C358   C     0.46927   0.30605   0.98383   0.00000  Uiso   1.00
C359   C     0.46014   0.25260   0.97012   0.00000  Uiso   1.00
C360   C     0.50098   0.31741   1.00765   0.00000  Uiso   1.00
C361   C     0.51222   0.29662   1.01232   0.00000  Uiso   1.00
C362   C     0.53881   0.22635   0.05207   0.00000  Uiso   1.00
C363   C     0.54082   0.17928   0.00370   0.00000  Uiso   1.00
C364   C     0.53787   0.13430   0.92852   0.00000  Uiso   1.00
C365   C     0.50399   0.24178   0.99760   0.00000  Uiso   1.00
loop_
_geom_bond_atom_site_label_1
_geom_bond_atom_site_label_2
_geom_bond_distance
_geom_bond_site_symmetry_2
_ccdc_geom_bond_type
Y0     O10     2.267   .     S
Y0     O13     2.262   .     S
Y0     O14     2.261   .     S
Y0     O12     2.254   1_554 S
Y0     O15     2.256   1_554 S
Y0     O17     2.246   1_554 S
Y1     O8      2.256   .     S
Y1     O16     2.265   .     S
Y1     O19     2.248   .     S
Y1     O9      2.264   1_556 S
Y1     O11     2.263   1_556 S
Y1     O18     2.264   1_556 S
C2     O9      1.261   .     A
C2     C330    1.494   .     S
C2     O8      1.260   1_554 A
C3     O10     1.277   .     A
C3     O11     1.273   .     A
C3     C84     1.497   .     S
C4     O12     1.260   .     A
C4     C262    1.495   .     S
C4     O13     1.263   1_556 A
C5     O15     1.260   .     A
C5     C356    1.494   .     S
C5     O14     1.261   1_556 A
C6     O16     1.271   .     A
C6     O17     1.267   .     A
C6     C92     1.499   .     S
C7     O18     1.264   .     A
C7     O19     1.261   1_554 A
C7     C186    1.493   1_554 S
O8     C2      1.260   1_556 A
O9     Y1      2.264   1_554 S
O11    Y1      2.263   1_554 S
O12    Y0      2.254   1_556 S
O13    C4      1.263   1_554 A
O14    C5      1.261   1_554 A
O15    Y0      2.256   1_556 S
O17    Y0      2.246   1_556 S
O18    Y1      2.264   1_554 S
O19    C7      1.261   1_556 A
Y20    O30     2.270   .     S
Y20    O33     2.262   .     S
Y20    O34     2.252   .     S
Y20    O32     2.252   1_554 S
Y20    O35     2.264   1_554 S
Y20    O37     2.247   1_554 S
Y21    O28     2.261   .     S
Y21    O36     2.269   .     S
Y21    O39     2.261   .     S
Y21    O29     2.257   1_556 S
Y21    O31     2.258   1_556 S
Y21    O38     2.254   1_556 S
C22    O28     1.260   .     A
C22    C254    1.493   .     S
C22    O29     1.259   1_556 A
C23    O30     1.277   .     A
C23    O31     1.270   1_455 A
C23    C126    1.496   1_455 S
C24    O32     1.260   .     A
C24    C296    1.495   .     S
C24    O33     1.263   1_556 A
C25    O34     1.260   .     A
C25    C194    1.495   .     S
C25    O35     1.262   1_554 A
C26    O37     1.267   .     A
C26    C118    1.494   .     S
C26    O36     1.274   1_455 A
C27    O38     1.260   .     A
C27    C220    1.491   .     S
C27    O39     1.261   1_554 A
O29    Y21     2.257   1_554 S
O29    C22     1.259   1_554 A
O31    Y21     2.258   1_554 S
O31    C23     1.270   1_655 A
O32    Y20     2.252   1_556 S
O33    C24     1.263   1_554 A
O35    Y20     2.264   1_556 S
O35    C25     1.262   1_556 A
O36    C26     1.274   1_655 A
O37    Y20     2.247   1_556 S
O38    Y21     2.254   1_554 S
O39    C27     1.261   1_556 A
Y40    O50     2.268   .     S
Y40    O53     2.264   .     S
Y40    O54     2.259   .     S
Y40    O52     2.251   1_554 S
Y40    O55     2.257   1_554 S
Y40    O57     2.251   1_554 S
Y41    O48     2.258   .     S
Y41    O56     2.267   .     S
Y41    O59     2.262   .     S
Y41    O49     2.260   1_556 S
Y41    O51     2.257   1_556 S
Y41    O58     2.255   1_556 S
C42    O48     1.259   .     A
C42    C288    1.490   .     S
C42    O49     1.259   1_556 A
C43    O50     1.275   .     A
C43    O51     1.270   1_545 A
C43    C152    1.495   1_545 S
C44    O52     1.259   .     A
C44    C364    1.494   .     S
C44    O53     1.263   1_556 A
C45    O54     1.260   .     A
C45    C228    1.491   .     S
C45    O55     1.260   1_554 A
C46    O57     1.268   .     A
C46    C160    1.494   .     S
C46    O56     1.274   1_545 A
C47    O58     1.260   .     A
C47    C322    1.493   .     S
C47    O59     1.262   1_554 A
O49    Y41     2.260   1_554 S
O49    C42     1.259   1_554 A
O51    Y41     2.257   1_554 S
O51    C43     1.270   1_565 A
O52    Y40     2.251   1_556 S
O53    C44     1.263   1_554 A
O55    Y40     2.257   1_556 S
O55    C45     1.260   1_556 A
O56    C46     1.274   1_565 A
O57    Y40     2.251   1_556 S
O58    Y41     2.255   1_554 S
O59    C47     1.262   1_556 A
C60    C64     1.406   .     A
C60    C90     1.406   .     A
C60    C91     1.486   .     S
C61    H78     1.083   .     S
C61    C90     1.399   .     A
C61    C93     1.406   .     A
H62    C82     1.083   .     S
C63    C64     1.397   .     A
C63    H80     1.083   .     S
C63    C93     1.405   .     A
C64    H79     1.081   .     S
N65    H74     1.044   .     S
N65    C83     1.375   .     S
N65    C84     1.465   .     S
N66    H81     1.043   .     S
N66    C91     1.374   .     S
N66    C92     1.464   .     S
O67    C83     1.221   .     D
O68    C91     1.219   .     D
H69    C84     1.110   .     S
H70    C84     1.111   .     S
H71    C87     1.083   .     S
H72    C88     1.082   .     S
H73    C89     1.083   .     S
H75    C90     1.083   .     S
H76    C92     1.110   .     S
H77    C92     1.110   .     S
C82    C86     1.406   .     A
C82    C87     1.398   .     A
C83    C86     1.486   .     S
C85    C87     1.406   .     A
C85    C89     1.405   .     A
C85    C93     1.485   .     S
C86    C88     1.407   .     A
C88    C89     1.398   .     A
C94    C124    1.405   .     A
C94    C125    1.484   .     S
C94    C98     1.405   1_655 A
C95    H112    1.083   .     S
C95    C124    1.399   .     A
C95    C127    1.407   1_655 A
H96    C116    1.083   .     S
C97    C98     1.397   .     A
C97    H114    1.083   .     S
C97    C127    1.406   .     A
C98    H113    1.082   .     S
C98    C94     1.405   1_455 A
N99    H108    1.045   .     S
N99    C117    1.374   .     S
N99    C118    1.463   .     S
N100   H115    1.045   .     S
N100   C125    1.373   .     S
N100   C126    1.464   .     S
O101   C117    1.220   .     D
O102   C125    1.220   .     D
H103   C118    1.111   .     S
H104   C118    1.109   .     S
H105   C121    1.083   .     S
H106   C122    1.082   .     S
H107   C123    1.083   .     S
H109   C124    1.083   .     S
H110   C126    1.112   .     S
H111   C126    1.110   .     S
C116   C120    1.405   .     A
C116   C121    1.398   .     A
C117   C120    1.484   .     S
C119   C121    1.407   .     A
C119   C127    1.487   .     S
C119   C123    1.406   1_455 A
C120   C122    1.406   1_455 A
C122   C123    1.397   .     A
C122   C120    1.406   1_655 A
C123   C119    1.406   1_655 A
C126   C23     1.496   1_655 S
C127   C95     1.407   1_455 A
C128   C158    1.406   .     A
C128   C159    1.485   .     S
C128   C132    1.406   1_545 A
C129   H146    1.082   .     S
C129   C158    1.397   .     A
C129   C161    1.406   .     A
H130   C150    1.083   .     S
C131   C132    1.398   .     A
C131   H148    1.082   .     S
C131   C161    1.407   1_565 A
C132   H147    1.082   .     S
C132   C128    1.406   1_565 A
N133   H142    1.045   .     S
N133   C151    1.439   1_545 S
N133   C152    1.463   1_545 S
N134   C159    1.374   .     S
N134   C160    1.463   .     S
N134   H149    1.043   1_545 S
O135   C151    1.220   .     D
O136   C159    1.221   .     D
H137   C152    1.109   .     S
H138   C152    1.110   1_545 S
H139   C155    1.084   .     S
H140   C156    1.081   .     S
H141   C157    1.083   .     S
H143   C158    1.084   .     S
H144   C160    1.110   .     S
H145   C160    1.110   1_565 S
H149   N134    1.043   1_565 S
C150   C154    1.405   .     A
C150   C155    1.397   .     A
C151   C154    1.481   .     S
C151   N133    1.439   1_565 S
C152   N133    1.463   1_565 S
C152   H138    1.110   1_565 S
C152   C43     1.495   1_565 S
C153   C155    1.407   .     A
C153   C157    1.407   1_565 A
C153   C161    1.489   1_565 S
C154   C156    1.404   1_565 A
C156   C157    1.398   .     A
C156   C154    1.404   1_545 A
C157   C153    1.407   1_545 A
C160   H145    1.110   1_545 S
C161   C131    1.407   1_545 A
C161   C153    1.489   1_545 S
C162   C192    1.409   .     A
C162   C193    1.489   .     S
C162   C166    1.407   1_554 A
C163   H180    1.083   .     S
C163   C192    1.399   .     A
C163   C195    1.403   .     A
H164   C184    1.083   .     S
C165   C166    1.397   .     A
C165   H182    1.083   .     S
C165   C195    1.405   1_556 A
C166   H181    1.081   .     S
C166   C162    1.407   1_556 A
N167   H176    1.044   .     S
N167   C185    1.374   .     S
N167   C186    1.465   1_554 S
N168   H183    1.044   .     S
N168   C193    1.376   .     S
N168   C194    1.465   .     S
O169   C185    1.221   .     D
O170   C193    1.222   .     D
H171   C186    1.111   .     S
H172   C186    1.111   .     S
H173   C189    1.083   .     S
H174   C190    1.082   .     S
H175   C191    1.083   .     S
H177   C192    1.083   .     S
H178   C194    1.113   .     S
H179   C194    1.112   .     S
C184   C189    1.393   .     A
C184   C188    1.405   1_556 A
C185   C188    1.483   .     S
C186   N167    1.465   1_556 S
C186   C7      1.493   1_556 S
C187   C191    1.406   .     A
C187   C195    1.482   .     S
C187   C189    1.402   1_554 A
C188   C190    1.407   .     A
C188   C184    1.405   1_554 A
C189   C187    1.402   1_556 A
C190   C191    1.403   .     A
C195   C165    1.405   1_554 A
C196   C200    1.406   .     A
C196   C226    1.404   .     A
C196   C227    1.482   .     S
C197   H214    1.083   .     S
C197   C226    1.396   .     A
C197   C229    1.406   .     A
H198   C218    1.083   .     S
C199   C200    1.399   .     A
C199   C229    1.406   .     A
C199   H216    1.083   1_554 S
C200   H215    1.083   1_554 S
N201   H210    1.045   .     S
N201   C220    1.458   .     S
N201   C219    1.431   1_554 S
N202   C227    1.373   .     S
N202   C228    1.465   .     S
N202   H217    1.045   1_554 S
O203   C219    1.220   .     D
O204   C227    1.221   .     D
H205   C220    1.112   1_556 S
H206   C220    1.112   .     S
H207   C223    1.083   .     S
H208   C224    1.082   .     S
H209   C225    1.083   .     S
H211   C226    1.083   .     S
H212   C228    1.111   .     S
H213   C228    1.110   1_556 S
H215   C200    1.083   1_556 S
H216   C199    1.083   1_556 S
H217   N202    1.045   1_556 S
C218   C222    1.406   .     A
C218   C223    1.399   .     A
C219   C222    1.483   .     S
C219   N201    1.431   1_556 S
C220   H205    1.112   1_554 S
C221   C225    1.406   .     A
C221   C229    1.486   .     S
C221   C223    1.406   1_554 A
C222   C224    1.405   1_556 A
C223   C221    1.406   1_556 A
C224   C225    1.396   .     A
C224   C222    1.405   1_554 A
C228   H213    1.110   1_554 S
C230   C260    1.406   .     A
C230   C261    1.484   .     S
C230   C234    1.405   1_554 A
C231   H248    1.082   .     S
C231   C260    1.399   .     A
C231   C263    1.408   1_554 A
H232   C252    1.083   .     S
C233   C234    1.396   .     A
C233   H250    1.082   .     S
C233   C263    1.406   .     A
C234   H249    1.081   .     S
C234   C230    1.405   1_556 A
N235   C253    1.372   .     S
N235   C254    1.465   .     S
N235   H244    1.046   1_556 S
N236   H251    1.044   .     S
N236   C262    1.459   .     S
N236   C261    1.430   1_556 S
O237   C253    1.221   .     D
O238   C261    1.219   .     D
H239   C254    1.112   .     S
H240   C254    1.110   1_554 S
H241   C257    1.082   .     S
H242   C258    1.083   .     S
H243   C259    1.082   1_554 S
H244   N235    1.046   1_554 S
H245   C260    1.083   .     S
H246   C262    1.111   .     S
H247   C262    1.110   .     S
C252   C256    1.403   .     A
C252   C257    1.396   .     A
C253   C256    1.482   .     S
C254   H240    1.110   1_556 S
C255   C257    1.408   .     A
C255   C259    1.407   .     A
C255   C263    1.491   .     S
C256   C258    1.406   .     A
C258   C259    1.399   .     A
C259   H243    1.082   1_556 S
C261   N236    1.430   1_554 S
C263   C231    1.408   1_556 A
C264   C294    1.406   .     A
C264   C295    1.484   .     S
C264   C268    1.407   1_554 A
C265   H282    1.083   .     S
C265   C294    1.398   .     A
C265   C297    1.406   1_554 A
H266   C286    1.083   .     S
C267   C268    1.396   .     A
C267   H284    1.083   .     S
C267   C297    1.405   .     A
C268   H283    1.082   .     S
C268   C264    1.407   1_556 A
N269   C287    1.374   .     S
N269   C288    1.463   .     S
N269   H278    1.044   1_556 S
N270   H285    1.046   .     S
N270   C296    1.460   .     S
N270   C295    1.431   1_556 S
O271   C287    1.221   .     D
O272   C295    1.220   .     D
H273   C288    1.111   .     S
H274   C288    1.111   1_554 S
H275   C291    1.083   .     S
H276   C292    1.082   1_554 S
H277   C293    1.083   1_554 S
H278   N269    1.044   1_554 S
H279   C294    1.083   .     S
H280   C296    1.112   1_554 S
H281   C296    1.111   .     S
C286   C290    1.405   .     A
C286   C291    1.396   .     A
C287   C290    1.485   .     S
C288   H274    1.111   1_556 S
C289   C291    1.406   .     A
C289   C293    1.405   .     A
C289   C297    1.485   .     S
C290   C292    1.407   .     A
C292   C293    1.398   .     A
C292   H276    1.082   1_556 S
C293   H277    1.083   1_556 S
C295   N270    1.431   1_554 S
C296   H280    1.112   1_556 S
C297   C265    1.406   1_556 A
C298   C302    1.405   .     A
C298   C328    1.406   .     A
C298   C329    1.484   .     S
C299   H316    1.083   .     S
C299   C328    1.397   .     A
C299   C331    1.405   .     A
H300   C320    1.083   .     S
C301   H318    1.083   .     S
C301   C302    1.398   1_556 A
C301   C331    1.407   1_556 A
C302   C301    1.398   1_554 A
C302   H317    1.082   1_554 S
N303   H312    1.045   .     S
N303   C322    1.461   .     S
N303   C321    1.434   1_554 S
N304   C329    1.376   .     S
N304   C330    1.465   .     S
N304   H319    1.044   1_554 S
O305   C321    1.220   .     D
O306   C329    1.220   .     D
H307   C322    1.112   1_556 S
H308   C322    1.112   .     S
H309   C325    1.083   .     S
H310   C326    1.082   .     S
H311   C327    1.083   .     S
H313   C328    1.083   .     S
H314   C330    1.111   .     S
H315   C330    1.111   1_556 S
H317   C302    1.082   1_556 S
H319   N304    1.044   1_556 S
C320   C324    1.407   .     A
C320   C325    1.397   .     A
C321   C324    1.486   .     S
C321   N303    1.434   1_556 S
C322   H307    1.112   1_554 S
C323   C327    1.406   .     A
C323   C331    1.487   .     S
C323   C325    1.405   1_554 A
C324   C326    1.407   1_556 A
C325   C323    1.405   1_556 A
C326   C327    1.399   .     A
C326   C324    1.407   1_554 A
C330   H315    1.111   1_554 S
C331   C301    1.407   1_554 A
C332   C362    1.405   .     A
C332   C363    1.480   .     S
C332   C336    1.404   1_554 A
C333   H350    1.082   .     S
C333   C362    1.399   .     A
C333   C365    1.408   1_554 A
H334   C354    1.083   .     S
C335   C336    1.397   .     A
C335   H352    1.082   .     S
C335   C365    1.407   .     A
C336   H351    1.083   .     S
C336   C332    1.404   1_556 A
N337   C355    1.376   .     S
N337   C356    1.465   .     S
N337   H346    1.044   1_556 S
N338   H353    1.045   .     S
N338   C364    1.460   .     S
N338   C363    1.433   1_556 S
O339   C355    1.219   .     D
O340   C363    1.220   .     D
H341   C356    1.111   .     S
H342   C356    1.111   1_554 S
H343   C359    1.083   .     S
H344   C360    1.082   1_554 S
H345   C361    1.082   1_554 S
H346   N337    1.044   1_554 S
H347   C362    1.084   .     S
H348   C364    1.111   1_554 S
H349   C364    1.111   .     S
C354   C358    1.405   .     A
C354   C359    1.397   .     A
C355   C358    1.484   .     S
C356   H342    1.111   1_556 S
C357   C359    1.407   .     A
C357   C361    1.408   .     A
C357   C365    1.490   .     S
C358   C360    1.404   .     A
C360   C361    1.398   .     A
C360   H344    1.082   1_556 S
C361   H345    1.082   1_556 S
C363   N338    1.433   1_554 S
C364   H348    1.111   1_556 S
C365   C333    1.408   1_556 A
