data_kag+N106+E161
_audit_creation_date              2025-01-21
_audit_creation_method            'Materials Studio'
_symmetry_space_group_name_H-M    'P1'
_symmetry_Int_Tables_number       1
_symmetry_cell_setting            triclinic
loop_
_symmetry_equiv_pos_as_xyz
  x,y,z
_cell_length_a                    49.9308
_cell_length_b                    52.3748
_cell_length_c                    22.9092
_cell_angle_alpha                 94.5601
_cell_angle_beta                  87.1651
_cell_angle_gamma                 124.9291
loop_
_atom_site_label
_atom_site_type_symbol
_atom_site_fract_x
_atom_site_fract_y
_atom_site_fract_z
_atom_site_U_iso_or_equiv
_atom_site_adp_type
_atom_site_occupancy
Y0     Y     0.51670   0.53479  -0.01242   0.00000  Uiso   1.00
Y1     Y     0.49147   0.46511   1.00483   0.00000  Uiso   1.00
O2     O     0.56182   0.53614  -0.03526   0.00000  Uiso   1.00
O3     O     0.51490   0.49678   0.92978   0.00000  Uiso   1.00
C4     C     0.47813   0.41031   1.03584   0.00000  Uiso   1.00
O5     O     0.46882   0.45355   0.91449   0.00000  Uiso   1.00
O6     O     0.53741   0.58538   0.00945   0.00000  Uiso   1.00
O7     O     0.51645   0.56665   0.92650   0.00000  Uiso   1.00
O8     O     0.54708   0.49334   1.01043   0.00000  Uiso   1.00
O9     O     0.49317   0.50308   0.06241   0.00000  Uiso   1.00
O10    O     0.53955   0.54598   0.07760   0.00000  Uiso   1.00
O11    O     0.46107   0.50658  -0.01837   0.00000  Uiso   1.00
C12    C     0.56877   0.51878   0.98650   0.00000  Uiso   1.00
O13    O     0.44621   0.46361   1.02657   0.00000  Uiso   1.00
C14    C     0.48934   0.47760   0.89241   0.00000  Uiso   1.00
O15    O     0.47044   0.41409   0.98737   0.00000  Uiso   1.00
O16    O     0.49236   0.43490   0.06901   0.00000  Uiso   1.00
C17    C     0.53005   0.59038  -0.03803   0.00000  Uiso   1.00
C18    C     0.43921   0.48100   0.00513   0.00000  Uiso   1.00
C19    C     0.51877   0.52210   0.09978   0.00000  Uiso   1.00
Y20    Y     0.98039   0.51007  -0.00827   0.00000  Uiso   1.00
Y21    Y     0.03060   0.49203   1.00488   0.00000  Uiso   1.00
O22    O     0.02871   0.55553  -0.02063   0.00000  Uiso   1.00
O23    O     1.01889   0.51132   0.93297   0.00000  Uiso   1.00
C24    C     0.07643   0.48194   1.02664   0.00000  Uiso   1.00
O25    O     0.01571   0.46908   0.91343   0.00000  Uiso   1.00
O26    O     0.94798   0.52590   0.01806   0.00000  Uiso   1.00
O27    O     0.94623   0.51050   0.93024   0.00000  Uiso   1.00
O28    O     0.05991   0.54459   1.02379   0.00000  Uiso   1.00
O29    O    -0.00853   0.48996   0.06319   0.00000  Uiso   1.00
O30    O     0.99391   0.53159   0.08450   0.00000  Uiso   1.00
O31    O     0.94958   0.45732  -0.02258   0.00000  Uiso   1.00
C32    C     0.05553   0.56415   1.00357   0.00000  Uiso   1.00
O33    O     0.98227   0.44543   1.01270   0.00000  Uiso   1.00
C34    C     0.01103   0.48688   0.89338   0.00000  Uiso   1.00
O35    O     0.07511   0.49259   0.98032   0.00000  Uiso   1.00
O36    O     0.05425   0.47706   0.06275   0.00000  Uiso   1.00
C37    C     0.93543   0.52112  -0.03132   0.00000  Uiso   1.00
C38    C     0.95462   0.43736  -0.00699   0.00000  Uiso   1.00
C39    C    -0.00145   0.51366   0.10397   0.00000  Uiso   1.00
Y40    Y     0.48920   0.02472   1.00726   0.00000  Uiso   1.00
Y41    Y     0.51486   0.98009  -0.01682   0.00000  Uiso   1.00
O42    O     0.44395   0.97681   1.01961   0.00000  Uiso   1.00
O43    O     0.49536  -0.00614   0.06122   0.00000  Uiso   1.00
C44    C     0.52835   0.93737  -0.04032   0.00000  Uiso   1.00
O45    O     0.54308   1.00382   0.06717   0.00000  Uiso   1.00
O46    O     0.45587   0.04070   1.01750   0.00000  Uiso   1.00
O47    O     0.49649   0.06263   0.07322   0.00000  Uiso   1.00
O48    O     0.45989   0.94738  -0.02380   0.00000  Uiso   1.00
O49    O     0.50012   1.00355   0.92833   0.00000  Uiso   1.00
O50    O     0.48350   0.03181   0.91338   0.00000  Uiso   1.00
O51    O     0.54442   0.05725   1.00601   0.00000  Uiso   1.00
C52    C     0.43771   0.95061  -0.00199   0.00000  Uiso   1.00
O53    O     0.55855   0.02682  -0.04079   0.00000  Uiso   1.00
C54    C     0.52341   0.00702   0.09318   0.00000  Uiso   1.00
O55    O     0.51785   0.94128   0.00828   0.00000  Uiso   1.00
O56    O     0.53132   0.95526   0.92207   0.00000  Uiso   1.00
C57    C     0.47193   0.06157   1.05749   0.00000  Uiso   1.00
C58    C     0.56533   0.05336   0.97990   0.00000  Uiso   1.00
C59    C     0.49241   0.01660   0.88874   0.00000  Uiso   1.00
H60    H     0.44133   0.44155   0.81283   0.00000  Uiso   1.00
C61    C     0.51897   0.51605   0.16140   0.00000  Uiso   1.00
C62    C     0.54422   0.53866   0.19894   0.00000  Uiso   1.00
C63    C     0.54244   0.53451   0.25911   0.00000  Uiso   1.00
C64    C     0.51501   0.50732   0.28194   0.00000  Uiso   1.00
C65    C     0.49047   0.48373   0.24380   0.00000  Uiso   1.00
C66    C     0.49263   0.48834   0.18380   0.00000  Uiso   1.00
C67    C     0.56928   0.55937   0.29912   0.00000  Uiso   1.00
C68    C     0.46175   0.45404   0.26718   0.00000  Uiso   1.00
C69    C     0.49565   0.51591   0.37541   0.00000  Uiso   1.00
C70    C     0.49210   0.51413   0.43646   0.00000  Uiso   1.00
C71    C     0.50480   0.50046   0.46515   0.00000  Uiso   1.00
C72    C     0.52080   0.48888   0.43256   0.00000  Uiso   1.00
C73    C     0.52374   0.49118   0.37153   0.00000  Uiso   1.00
C74    C     0.47633   0.52574   0.46939   0.00000  Uiso   1.00
C75    C     0.47315   0.52374   0.53010   0.00000  Uiso   1.00
C76    C     0.48568   0.51012   0.55922   0.00000  Uiso   1.00
C77    C     0.50159   0.49845   0.52661   0.00000  Uiso   1.00
C78    C     0.51429   0.48479   0.55529   0.00000  Uiso   1.00
C79    C     0.53029   0.47339   0.52238   0.00000  Uiso   1.00
C80    C     0.53354   0.47546   0.46169   0.00000  Uiso   1.00
C81    C     0.48279   0.50785   0.62031   0.00000  Uiso   1.00
C82    C     0.51067   0.48291   0.61639   0.00000  Uiso   1.00
C83    C     0.49198   0.49219   0.71017   0.00000  Uiso   1.00
C84    C     0.54791   0.54394   0.72466   0.00000  Uiso   1.00
C85    C     0.51598   0.51054   0.80741   0.00000  Uiso   1.00
C86    C     0.43567   0.44188   0.69585   0.00000  Uiso   1.00
C87    C     0.46252   0.46207   0.79454   0.00000  Uiso   1.00
C88    C     0.46384   0.46603   0.73433   0.00000  Uiso   1.00
C89    C     0.51780   0.51502   0.74742   0.00000  Uiso   1.00
C90    C     0.48889   0.48375   0.83091   0.00000  Uiso   1.00
H91    H     0.44399   0.43130   0.66244   0.00000  Uiso   1.00
N92    N     0.51122   0.50451   0.34434   0.00000  Uiso   1.00
N93    N     0.49516   0.49440   0.64750   0.00000  Uiso   1.00
H94    H     0.42584   0.45288   0.67351   0.00000  Uiso   1.00
H95    H     0.56476   0.56000   0.18166   0.00000  Uiso   1.00
H96    H     0.47325   0.47067   0.15476   0.00000  Uiso   1.00
H97    H     0.58931   0.57903   0.27460   0.00000  Uiso   1.00
H98    H     0.55934   0.56877   0.33173   0.00000  Uiso   1.00
H99    H     0.57979   0.54928   0.32254   0.00000  Uiso   1.00
H100   H     0.44794   0.45943   0.29915   0.00000  Uiso   1.00
H101   H     0.44483   0.43779   0.23170   0.00000  Uiso   1.00
H102   H     0.47051   0.44202   0.28929   0.00000  Uiso   1.00
O103   O     0.53933   0.48015   0.33904   0.00000  Uiso   1.00
O104   O     0.48358   0.52932   0.34672   0.00000  Uiso   1.00
H105   H     0.46641   0.53643   0.44842   0.00000  Uiso   1.00
H106   H     0.54608   0.46654   0.43770   0.00000  Uiso   1.00
H107   H     0.46084   0.53291   0.55411   0.00000  Uiso   1.00
H108   H     0.56968   0.54402   0.73276   0.00000  Uiso   1.00
H109   H     0.54677   0.54574   0.67712   0.00000  Uiso   1.00
H110   H     0.53629   0.52766   0.83549   0.00000  Uiso   1.00
H111   H     0.54040   0.46287   0.54334   0.00000  Uiso   1.00
H112   H     0.41548   0.42293   0.72140   0.00000  Uiso   1.00
O113   O     0.52274   0.46950   0.64501   0.00000  Uiso   1.00
O114   O     0.46759   0.51930   0.65285   0.00000  Uiso   1.00
H115   H     0.55107   0.56492   0.74779   0.00000  Uiso   1.00
H116   H     0.01539   0.47948   0.15286   0.00000  Uiso   1.00
C117   C     0.00266   0.48479   0.83165   0.00000  Uiso   1.00
C118   C     0.99645   0.50554   0.81185   0.00000  Uiso   1.00
C119   C     0.99296   0.50654   0.75179   0.00000  Uiso   1.00
C120   C     0.99633   0.48684   0.71103   0.00000  Uiso   1.00
C121   C     0.00109   0.46494   0.73111   0.00000  Uiso   1.00
C122   C     0.00378   0.46382   0.79132   0.00000  Uiso   1.00
C123   C     0.98655   0.52913   0.73122   0.00000  Uiso   1.00
C124   C     0.00492   0.44387   0.68833   0.00000  Uiso   1.00
C125   C     0.02734   0.51331   0.62521   0.00000  Uiso   1.00
C126   C     0.03031   0.51692   0.56464   0.00000  Uiso   1.00
C127   C     1.00273   0.49710   0.52895   0.00000  Uiso   1.00
C128   C     0.97264   0.47434   0.55429   0.00000  Uiso   1.00
C129   C     0.97080   0.47180   0.61523   0.00000  Uiso   1.00
C130   C     0.06017   0.53964   0.53900   0.00000  Uiso   1.00
C131   C     0.06261   0.54263   0.47858   0.00000  Uiso   1.00
C132   C     0.03529   0.52292   0.44250   0.00000  Uiso   1.00
C133   C     1.00523   0.50007   0.46779   0.00000  Uiso   1.00
C134   C     0.97763   0.48033   0.43212   0.00000  Uiso   1.00
C135   C     0.94777   0.45760   0.45775   0.00000  Uiso   1.00
C136   C     0.94531   0.45462   0.51818   0.00000  Uiso   1.00
C137   C     0.03705   0.52567   0.38166   0.00000  Uiso   1.00
C138   C     0.98054   0.48412   0.37163   0.00000  Uiso   1.00
C139   C     0.01130   0.51127   0.28628   0.00000  Uiso   1.00
C140   C     1.00038   0.55314   0.30943   0.00000  Uiso   1.00
C141   C     1.00325   0.53448   0.20718   0.00000  Uiso   1.00
C142   C     0.02335   0.47062   0.26421   0.00000  Uiso   1.00
C143   C     0.01305   0.49452   0.18476   0.00000  Uiso   1.00
C144   C     0.01603   0.49276   0.24469   0.00000  Uiso   1.00
C145   C     1.00552   0.53271   0.26720   0.00000  Uiso   1.00
C146   C     0.00596   0.51481   0.16591   0.00000  Uiso   1.00
H147   H     0.00293   0.45306   0.29154   0.00000  Uiso   1.00
N148   N     0.99797   0.49096   0.64917   0.00000  Uiso   1.00
N149   N     1.00985   0.50659   0.34777   0.00000  Uiso   1.00
H150   H     0.04615   0.48382   0.29036   0.00000  Uiso   1.00
H151   H     0.99522   0.52151   0.84308   0.00000  Uiso   1.00
H152   H     0.00834   0.44756   0.80655   0.00000  Uiso   1.00
H153   H     0.98433   0.54276   0.76843   0.00000  Uiso   1.00
H154   H     1.00684   0.54576   0.70257   0.00000  Uiso   1.00
H155   H     0.96340   0.51612   0.70617   0.00000  Uiso   1.00
H156   H     0.02575   0.45812   0.65837   0.00000  Uiso   1.00
H157   H     0.00972   0.42886   0.71080   0.00000  Uiso   1.00
H158   H    -0.01769   0.42849   0.66222   0.00000  Uiso   1.00
O159   O     0.94175   0.44977   0.64076   0.00000  Uiso   1.00
O160   O     0.05413   0.53202   0.66052   0.00000  Uiso   1.00
H161   H     0.08173   0.55522   0.56550   0.00000  Uiso   1.00
H162   H     0.92194   0.43683   0.53646   0.00000  Uiso   1.00
H163   H     0.08595   0.56048   0.46031   0.00000  Uiso   1.00
H164   H     0.97602   0.54827   0.30198   0.00000  Uiso   1.00
H165   H     1.00147   0.54936   0.35590   0.00000  Uiso   1.00
H166   H     0.99768   0.55021   0.19290   0.00000  Uiso   1.00
H167   H     0.92620   0.44208   0.43125   0.00000  Uiso   1.00
H168   H     0.02673   0.45805   0.22641   0.00000  Uiso   1.00
O169   O     0.95369   0.46561   0.33635   0.00000  Uiso   1.00
O170   O     0.06595   0.54808   0.35628   0.00000  Uiso   1.00
H171   H     1.01947   0.57805   0.30223   0.00000  Uiso   1.00
H172   H     0.52800  -0.00042   0.82822   0.00000  Uiso   1.00
C173   C     0.52749   0.01950   0.15429   0.00000  Uiso   1.00
C174   C     0.50238   0.02009   0.18265   0.00000  Uiso   1.00
C175   C     0.50274   0.02556   0.24361   0.00000  Uiso   1.00
C176   C     0.52873   0.03048   0.27643   0.00000  Uiso   1.00
C177   C     0.55561   0.03290   0.24722   0.00000  Uiso   1.00
C178   C     0.55480   1.02753   0.18623   0.00000  Uiso   1.00
C179   C     0.47463   0.02455   0.27342   0.00000  Uiso   1.00
C180   C     0.58416   1.03928   0.28110   0.00000  Uiso   1.00
C181   C     0.50796   0.99932   0.36067   0.00000  Uiso   1.00
C182   C     0.50506   0.99606   0.42130   0.00000  Uiso   1.00
C183   C     0.52113   0.02307   0.45942   0.00000  Uiso   1.00
C184   C     0.53961   0.05279   0.43650   0.00000  Uiso   1.00
C185   C     0.54126   0.05491   0.37542   0.00000  Uiso   1.00
C186   C     0.48658   0.96653   0.44455   0.00000  Uiso   1.00
C187   C     0.48352   0.96384   0.50505   0.00000  Uiso   1.00
C188   C     0.49923   0.99063   0.54355   0.00000  Uiso   1.00
C189   C     0.51851   0.02033   0.52066   0.00000  Uiso   1.00
C190   C     0.53483   0.04732   0.55884   0.00000  Uiso   1.00
C191   C     0.55374   0.07684   0.53556   0.00000  Uiso   1.00
C192   C     0.55597   0.07955   0.47504   0.00000  Uiso   1.00
C193   C     0.49564   0.98855   0.60455   0.00000  Uiso   1.00
C194   C     0.53121   0.04405   0.61952   0.00000  Uiso   1.00
C195   C     0.50441   0.01275   0.70291   0.00000  Uiso   1.00
C196   C     0.46362   0.02685   0.69145   0.00000  Uiso   1.00
C197   C     0.47894   0.02083   0.78876   0.00000  Uiso   1.00
C198   C     0.54419  -0.00206   0.71397   0.00000  Uiso   1.00
C199   C     0.51543   0.00512   0.80003   0.00000  Uiso   1.00
C200   C     0.52060   0.00508   0.73927   0.00000  Uiso   1.00
C201   C     0.48275   0.01985   0.72794   0.00000  Uiso   1.00
C202   C     0.49528   0.01367   0.82491   0.00000  Uiso   1.00
H203   H     0.56416   0.01814   0.69047   0.00000  Uiso   1.00
N204   N     0.52566   0.02836   0.33901   0.00000  Uiso   1.00
N205   N     0.51121   0.01507   0.64102   0.00000  Uiso   1.00
H206   H     0.53136   0.97702   0.68305   0.00000  Uiso   1.00
H207   H     0.48169   0.01472   0.15762   0.00000  Uiso   1.00
H208   H     0.57463   1.02779   0.16405   0.00000  Uiso   1.00
H209   H     0.45676   0.02114   0.24115   0.00000  Uiso   1.00
H210   H     0.46163   0.00498   0.30285   0.00000  Uiso   1.00
H211   H     0.48391   0.04689   0.29938   0.00000  Uiso   1.00
H212   H     0.57571   1.02063   0.31177   0.00000  Uiso   1.00
H213   H     0.60299   1.04014   0.25164   0.00000  Uiso   1.00
H214   H     0.59585   0.06215   0.30638   0.00000  Uiso   1.00
O215   O     0.55870   0.08362   0.35224   0.00000  Uiso   1.00
O216   O     0.49304   0.97317   0.32288   0.00000  Uiso   1.00
H217   H     0.47415   0.94539   0.41612   0.00000  Uiso   1.00
H218   H     0.57049   0.10266   0.45862   0.00000  Uiso   1.00
H219   H     0.46873   0.94074   0.52150   0.00000  Uiso   1.00
H220   H     0.47173   0.05138   0.70148   0.00000  Uiso   1.00
H221   H     0.46646   0.02343   0.64374   0.00000  Uiso   1.00
H222   H     0.46303   0.02713   0.80794   0.00000  Uiso   1.00
H223   H     0.56657   0.09795   0.56402   0.00000  Uiso   1.00
H224   H     0.55533  -0.00679   0.74865   0.00000  Uiso   1.00
O225   O     0.54686   0.07012   0.65743   0.00000  Uiso   1.00
O226   O     0.47558   0.95990   0.62757   0.00000  Uiso   1.00
H227   H     0.43721   1.01104   0.70211   0.00000  Uiso   1.00
H228   H     0.11993   0.48489   0.94817   0.00000  Uiso   1.00
C229   C     0.40546   0.47236   1.01083   0.00000  Uiso   1.00
C230   C     0.38586   0.45585   0.05848   0.00000  Uiso   1.00
C231   C     0.35486   0.45010   0.06730   0.00000  Uiso   1.00
C232   C     0.34310   0.46054   0.02711   0.00000  Uiso   1.00
C233   C     0.36203   0.47562   0.97742   0.00000  Uiso   1.00
C234   C     0.39321   0.48176   0.97013   0.00000  Uiso   1.00
C235   C     0.33490   0.43374   0.12027   0.00000  Uiso   1.00
C236   C     0.34923   0.48561   0.93269   0.00000  Uiso   1.00
C237   C     0.31595   0.48447   0.06550   0.00000  Uiso   1.00
C238   C     0.28820   0.48498   0.07276   0.00000  Uiso   1.00
C239   C     0.25763   0.45834   0.05449   0.00000  Uiso   1.00
C240   C     0.25525   0.43158   1.02988   0.00000  Uiso   1.00
C241   C     0.28388   0.43237   1.02241   0.00000  Uiso   1.00
C242   C     0.29044   0.51171   0.09651   0.00000  Uiso   1.00
C243   C     0.26277   0.51221   0.10110   0.00000  Uiso   1.00
C244   C     0.23221   0.48593   0.08228   0.00000  Uiso   1.00
C245   C     0.22953   0.45874   0.05967   0.00000  Uiso   1.00
C246   C     0.19896   0.43223   1.04093   0.00000  Uiso   1.00
C247   C     0.19668   0.40535   1.01791   0.00000  Uiso   1.00
C248   C     0.22453   0.40507   1.01219   0.00000  Uiso   1.00
C249   C     0.20443   0.48654   0.08336   0.00000  Uiso   1.00
C250   C     0.17171   0.43379   1.04372   0.00000  Uiso   1.00
C251   C     0.14899   0.46439   0.05369   0.00000  Uiso   1.00
C252   C     0.13020   0.45325   0.16027   0.00000  Uiso   1.00
C253   C     0.10391   0.46693   0.09079   0.00000  Uiso   1.00
C254   C     0.16803   0.47588   0.94814   0.00000  Uiso   1.00
C255   C     0.12202   0.47826   0.99044   0.00000  Uiso   1.00
C256   C     0.14576   0.47257   0.99842   0.00000  Uiso   1.00
C257   C     0.12781   0.46150   0.10017   0.00000  Uiso   1.00
C258   C     0.10111   0.47564   0.03636   0.00000  Uiso   1.00
H259   H     0.16549   0.45351   0.93795   0.00000  Uiso   1.00
N260   N     0.31349   0.45874   0.03943   0.00000  Uiso   1.00
N261   N     0.17519   0.46104   0.06255   0.00000  Uiso   1.00
H262   H     0.19381   0.49445   0.95983   0.00000  Uiso   1.00
H263   H     0.39531   0.44860   0.09014   0.00000  Uiso   1.00
H264   H     0.40810   0.49410   0.93285   0.00000  Uiso   1.00
H265   H     0.34765   0.42727   0.14771   0.00000  Uiso   1.00
H266   H     0.33014   0.44925   0.14759   0.00000  Uiso   1.00
H267   H     0.31124   0.41205   0.10618   0.00000  Uiso   1.00
H268   H     0.34519   0.50308   0.95321   0.00000  Uiso   1.00
H269   H     0.36658   0.49623   0.89556   0.00000  Uiso   1.00
H270   H     0.32575   0.46497   0.91496   0.00000  Uiso   1.00
O271   O     0.28226   0.40696   0.99660   0.00000  Uiso   1.00
O272   O     0.34595   0.51033   0.08291   0.00000  Uiso   1.00
H273   H     0.31369   0.53253   0.11068   0.00000  Uiso   1.00
H274   H     0.22196   0.38415   0.99325   0.00000  Uiso   1.00
H275   H     0.26551   0.53341   0.11862   0.00000  Uiso   1.00
H276   H     0.10616   0.43239   0.17308   0.00000  Uiso   1.00
H277   H     0.14870   0.44799   0.16255   0.00000  Uiso   1.00
H278   H     0.08772   0.46472   0.12637   0.00000  Uiso   1.00
H279   H     0.17348   0.38466   1.00318   0.00000  Uiso   1.00
H280   H     0.16209   0.48210   0.90778   0.00000  Uiso   1.00
O281   O     0.14184   0.40841   1.02458   0.00000  Uiso   1.00
O282   O     0.20697   0.51335   0.10269   0.00000  Uiso   1.00
H283   H     0.13688   0.47308   0.19230   0.00000  Uiso   1.00
H284   H     0.59074   0.09771   0.90218   0.00000  Uiso   1.00
C285   C     0.92720   0.40397   0.98937   0.00000  Uiso   1.00
C286   C     0.92618   0.38298   0.02543   0.00000  Uiso   1.00
C287   C     0.89903   0.35173   0.02484   0.00000  Uiso   1.00
C288   C     0.87274   0.34126  -0.01319   0.00000  Uiso   1.00
C289   C     0.87429   0.36199   0.94872   0.00000  Uiso   1.00
C290   C     0.90137   0.39316   0.95068   0.00000  Uiso   1.00
C291   C     0.89793   0.32992   0.06552   0.00000  Uiso   1.00
C292   C     0.84699   0.35111   0.90653   0.00000  Uiso   1.00
C293   C     0.81814   0.30549   0.02409   0.00000  Uiso   1.00
C294   C     0.78824   0.27604   0.02374   0.00000  Uiso   1.00
C295   C     0.78487   0.25129  -0.01230   0.00000  Uiso   1.00
C296   C     0.81150   0.25619   0.95352   0.00000  Uiso   1.00
C297   C     0.84090   0.28618   0.95495   0.00000  Uiso   1.00
C298   C     0.76158   0.27094   0.05774   0.00000  Uiso   1.00
C299   C     0.73174   0.24172   0.05528   0.00000  Uiso   1.00
C300   C     0.72795   0.21698   0.01888   0.00000  Uiso   1.00
C301   C     0.75467   0.22167  -0.01465   0.00000  Uiso   1.00
C302   C     0.75116   0.19690   0.94906   0.00000  Uiso   1.00
C303   C     0.77807   0.20187   0.91605   0.00000  Uiso   1.00
C304   C     0.80790   0.23120   0.91821   0.00000  Uiso   1.00
C305   C     0.69795   0.18762   0.01476   0.00000  Uiso   1.00
C306   C     0.72062   0.16784   0.94652   0.00000  Uiso   1.00
C307   C     0.66334   0.13437  -0.02517   0.00000  Uiso   1.00
C308   C     0.67672   0.11658   0.06328   0.00000  Uiso   1.00
C309   C     0.62188   0.08524   0.01656   0.00000  Uiso   1.00
C310   C     0.65003   0.15198   0.88713   0.00000  Uiso   1.00
C311   C     0.60855   0.10187   0.93367   0.00000  Uiso   1.00
C312   C     0.64060   0.12884   0.93243   0.00000  Uiso   1.00
C313   C     0.65389   0.11212   0.01671   0.00000  Uiso   1.00
C314   C     0.59915   0.08045  -0.02388   0.00000  Uiso   1.00
H315   H     0.67073   0.15515   0.86025   0.00000  Uiso   1.00
N316   N     0.84348   0.31013  -0.01074   0.00000  Uiso   1.00
N317   N     0.69478   0.16389  -0.02126   0.00000  Uiso   1.00
H318   H     0.65735   0.17477   0.90898   0.00000  Uiso   1.00
H319   H     0.94609   0.39118   0.05535   0.00000  Uiso   1.00
H320   H     0.90232   0.40913   0.92193   0.00000  Uiso   1.00
H321   H     0.92043   0.34173   0.09235   0.00000  Uiso   1.00
H322   H     0.87670   0.32112   0.09572   0.00000  Uiso   1.00
H323   H     0.89558   0.30986   0.03982   0.00000  Uiso   1.00
H324   H     0.82396   0.34309   0.93100   0.00000  Uiso   1.00
H325   H     0.85239   0.37010   0.87898   0.00000  Uiso   1.00
H326   H     0.84348   0.33155   0.87699   0.00000  Uiso   1.00
O327   O     0.86688   0.29165   0.92084   0.00000  Uiso   1.00
O328   O     0.82171   0.32997   0.05843   0.00000  Uiso   1.00
H329   H     0.76359   0.28955   0.08597   0.00000  Uiso   1.00
H330   H     0.82805   0.23428   0.89184   0.00000  Uiso   1.00
H331   H     0.71163   0.23867   0.08173   0.00000  Uiso   1.00
H332   H     0.67874   0.09648   0.06023   0.00000  Uiso   1.00
H333   H     0.70162   0.13818   0.05947   0.00000  Uiso   1.00
H334   H     0.61435   0.06839   0.04924   0.00000  Uiso   1.00
H335   H     0.77613   0.18319   0.88813   0.00000  Uiso   1.00
H336   H     0.62943   0.14401   0.85719   0.00000  Uiso   1.00
O337   O     0.71665   0.14345   0.91130   0.00000  Uiso   1.00
O338   O     0.67155   0.18277   0.04662   0.00000  Uiso   1.00
H339   H     0.66673   0.11768   0.10708   0.00000  Uiso   1.00
H340   H     0.60975   0.53143   0.07330   0.00000  Uiso   1.00
C341   C     0.91060   0.52716   0.95862   0.00000  Uiso   1.00
C342   C     0.89414   0.51838   0.90511   0.00000  Uiso   1.00
C343   C     0.86871   0.52207   0.89823   0.00000  Uiso   1.00
C344   C     0.85975   0.53473   0.94572   0.00000  Uiso   1.00
C345   C     0.87707   0.54455  -0.00113   0.00000  Uiso   1.00
C346   C     0.90237   0.54082   0.00463   0.00000  Uiso   1.00
C347   C     0.85072   0.51184   0.84098   0.00000  Uiso   1.00
C348   C     0.86791   0.55791   0.05031   0.00000  Uiso   1.00
C349   C     0.80127   0.50801  -0.04557   0.00000  Uiso   1.00
C350   C     0.77299   0.50775   0.95697   0.00000  Uiso   1.00
C351   C     0.77565   0.53538   0.94755   0.00000  Uiso   1.00
C352   C     0.80630   0.56252   0.93432   0.00000  Uiso   1.00
C353   C     0.83393   0.56155   0.93155   0.00000  Uiso   1.00
C354   C     0.74232   0.48073  -0.03037   0.00000  Uiso   1.00
C355   C     0.71460   0.48114  -0.02673   0.00000  Uiso   1.00
C356   C     0.71701   0.50868   0.96489   0.00000  Uiso   1.00
C357   C     0.74762   0.53591   0.95201   0.00000  Uiso   1.00
C358   C     0.75029   0.56368   0.94386   0.00000  Uiso   1.00
C359   C     0.78091   0.59053   0.93002   0.00000  Uiso   1.00
C360   C     0.80859   0.58994   0.92515   0.00000  Uiso   1.00
C361   C     0.68952   0.50970  -0.03072   0.00000  Uiso   1.00
C362   C     0.72214   0.56377   0.94997   0.00000  Uiso   1.00
C363   C     0.66370   0.53704   0.96819   0.00000  Uiso   1.00
C364   C     0.65802   0.53246   0.85654   0.00000  Uiso   1.00
C365   C     0.61566   0.52888   0.92478   0.00000  Uiso   1.00
C366   C     0.67036   0.54384   0.07879   0.00000  Uiso   1.00
C367   C     0.62010   0.53210   0.03024   0.00000  Uiso   1.00
C368   C     0.65108   0.53763   0.02462   0.00000  Uiso   1.00
C369   C     0.64605   0.53325   0.91790   0.00000  Uiso   1.00
C370   C     0.60220   0.52718  -0.01945   0.00000  Uiso   1.00
H371   H     0.69433   0.56679   0.07692   0.00000  Uiso   1.00
N372   N     0.83099   0.53468   0.94244   0.00000  Uiso   1.00
N373   N     0.69255   0.53701   0.96241   0.00000  Uiso   1.00
H374   H     0.67440   0.52525   0.08199   0.00000  Uiso   1.00
H375   H     0.90051   0.50793   0.86936   0.00000  Uiso   1.00
H376   H     0.91525   0.54797   0.04586   0.00000  Uiso   1.00
H377   H     0.86119   0.50322   0.80774   0.00000  Uiso   1.00
H378   H     0.82465   0.49271   0.84760   0.00000  Uiso   1.00
H379   H     0.85222   0.53180   0.82346   0.00000  Uiso   1.00
H380   H     0.84198   0.54088   0.06259   0.00000  Uiso   1.00
H381   H     0.88318   0.56338   0.08921   0.00000  Uiso   1.00
H382   H     0.87139   0.57983   0.03885   0.00000  Uiso   1.00
O383   O     0.86409   0.58784   0.91946   0.00000  Uiso   1.00
O384   O     0.79922   0.48155  -0.03435   0.00000  Uiso   1.00
H385   H     0.73963   0.45919  -0.02309   0.00000  Uiso   1.00
H386   H     0.83181   0.61109   0.91459   0.00000  Uiso   1.00
H387   H     0.69134   0.45988  -0.01687   0.00000  Uiso   1.00
H388   H     0.66019   0.55113   0.83230   0.00000  Uiso   1.00
H389   H     0.68214   0.53598   0.85535   0.00000  Uiso   1.00
H390   H     0.60172   0.52530   0.88642   0.00000  Uiso   1.00
H391   H     0.78360   0.61210   0.92298   0.00000  Uiso   1.00
H392   H     0.65740   0.54451   0.11915   0.00000  Uiso   1.00
O393   O     0.72429   0.59069   0.94311   0.00000  Uiso   1.00
O394   O     0.65943   0.48319  -0.01906   0.00000  Uiso   1.00
H395   H     0.64020   0.50948   0.83361   0.00000  Uiso   1.00
H396   H     0.05085   0.61317   1.00279   0.00000  Uiso   1.00
C397   C     0.40363   0.92275   0.99985   0.00000  Uiso   1.00
C398   C     0.39692   0.89283   0.99048   0.00000  Uiso   1.00
C399   C     0.36485   0.86620   0.99325   0.00000  Uiso   1.00
C400   C     0.33890   0.86946   1.00484   0.00000  Uiso   1.00
C401   C     0.34536   0.89941   1.01430   0.00000  Uiso   1.00
C402   C     0.37771   0.92584   0.01209   0.00000  Uiso   1.00
C403   C     0.35835   0.83433   0.98435   0.00000  Uiso   1.00
C404   C     0.31780   0.90308   0.02626   0.00000  Uiso   1.00
C405   C     0.29285   0.82930   0.05951   0.00000  Uiso   1.00
C406   C     0.26234   0.80048   0.06162   0.00000  Uiso   1.00
C407   C     0.24555   0.78497   1.00891   0.00000  Uiso   1.00
C408   C     0.25873   0.79906   0.95546   0.00000  Uiso   1.00
C409   C     0.28915   0.82806   0.95561   0.00000  Uiso   1.00
C410   C     0.24878   0.78638   0.11475   0.00000  Uiso   1.00
C411   C     0.21947   0.75675   0.11533   0.00000  Uiso   1.00
C412   C     0.20317   0.74056   0.06279   0.00000  Uiso   1.00
C413   C     0.21600   0.75491   1.00947   0.00000  Uiso   1.00
C414   C     0.19988   0.73889   0.95651   0.00000  Uiso   1.00
C415   C     0.21266   0.75360   0.90367   0.00000  Uiso   1.00
C416   C     0.24173   0.78342   0.90317   0.00000  Uiso   1.00
C417   C     0.17484   0.70994   0.06190   0.00000  Uiso   1.00
C418   C     0.17188   0.70815   0.95772   0.00000  Uiso   1.00
C419   C     0.13403   0.66155   1.00925   0.00000  Uiso   1.00
C420   C     0.17512   0.64734   1.01290   0.00000  Uiso   1.00
C421   C     0.11489   0.60717   0.01073   0.00000  Uiso   1.00
C422   C     0.09379   0.67617   1.00664   0.00000  Uiso   1.00
C423   C     0.07590   0.62034   1.00510   0.00000  Uiso   1.00
C424   C     0.10139   0.65221   1.00690   0.00000  Uiso   1.00
C425   C     0.14076   0.63881   1.01112   0.00000  Uiso   1.00
C426   C     0.08245   0.59768   0.00694   0.00000  Uiso   1.00
H427   H     0.10456   0.68975   0.96713   0.00000  Uiso   1.00
N428   N     0.30592   0.84205   1.00689   0.00000  Uiso   1.00
N429   N     0.16042   0.69414   1.00974   0.00000  Uiso   1.00
H430   H     0.10422   0.69236   0.04625   0.00000  Uiso   1.00
H431   H     0.41676   0.89018   0.98174   0.00000  Uiso   1.00
H432   H     0.38263   0.94885   0.01953   0.00000  Uiso   1.00
H433   H     0.38126   0.83567   0.97708   0.00000  Uiso   1.00
H434   H     0.34591   0.82095   1.02361   0.00000  Uiso   1.00
H435   H     0.34249   0.82158   0.94561   0.00000  Uiso   1.00
H436   H     0.30459   0.89149   0.06671   0.00000  Uiso   1.00
H437   H     0.32672   0.92801   0.03220   0.00000  Uiso   1.00
H438   H     0.30052   0.89213   0.98893   0.00000  Uiso   1.00
O439   O     0.30280   0.84182   0.90380   0.00000  Uiso   1.00
O440   O     0.31021   0.84414   0.11013   0.00000  Uiso   1.00
H441   H     0.26105   0.79793   0.15592   0.00000  Uiso   1.00
H442   H     0.25119   0.79386   0.86157   0.00000  Uiso   1.00
H443   H     0.20999   0.74634   0.15694   0.00000  Uiso   1.00
H444   H     0.17886   0.63449   0.97624   0.00000  Uiso   1.00
H445   H     0.19393   0.67258   0.00869   0.00000  Uiso   1.00
H446   H     0.12022   0.58986   0.01182   0.00000  Uiso   1.00
H447   H     0.20052   0.74195   0.86244   0.00000  Uiso   1.00
H448   H     0.06707   0.66524   1.00649   0.00000  Uiso   1.00
O449   O     0.15667   0.69168   0.90629   0.00000  Uiso   1.00
O450   O     0.16234   0.69534   0.11330   0.00000  Uiso   1.00
H451   H     0.17904   0.64081   0.05496   0.00000  Uiso   1.00
H452   H     0.55598   0.64126   0.03642   0.00000  Uiso   1.00
C453   C     0.53613   0.91419  -0.05083   0.00000  Uiso   1.00
C454   C     0.53410   0.90051   0.89299   0.00000  Uiso   1.00
C455   C     0.53824   0.87609   0.88470   0.00000  Uiso   1.00
C456   C     0.54540   0.86597   0.93324   0.00000  Uiso   1.00
C457   C     0.54956   0.88112  -0.01085   0.00000  Uiso   1.00
C458   C     0.54433   0.90472  -0.00324   0.00000  Uiso   1.00
C459   C     0.53386   0.86016   0.82480   0.00000  Uiso   1.00
C460   C     0.55884   0.87168   0.04084   0.00000  Uiso   1.00
C461   C     0.57310   0.84017   0.91371   0.00000  Uiso   1.00
C462   C     0.57320   0.81330   0.91188   0.00000  Uiso   1.00
C463   C     0.54409   0.78458   0.92474   0.00000  Uiso   1.00
C464   C     0.51535   0.78301  -0.06194   0.00000  Uiso   1.00
C465   C     0.51633   0.81032  -0.06136   0.00000  Uiso   1.00
C466   C     0.60165   0.81449   0.89839   0.00000  Uiso   1.00
C467   C     0.60125   0.78756   0.89810   0.00000  Uiso   1.00
C468   C     0.57245   0.75888   0.91174   0.00000  Uiso   1.00
C469   C     0.54376   0.75741   0.92500   0.00000  Uiso   1.00
C470   C     0.51477   0.72889  -0.06093   0.00000  Uiso   1.00
C471   C     0.48623   0.72760  -0.04808   0.00000  Uiso   1.00
C472   C     0.48650   0.75436  -0.04869   0.00000  Uiso   1.00
C473   C     0.57157   0.73159   0.91325   0.00000  Uiso   1.00
C474   C     0.51517   0.70239  -0.05932   0.00000  Uiso   1.00
C475   C     0.54317   0.67691   0.93384   0.00000  Uiso   1.00
C476   C     0.52041   0.65621   0.83023   0.00000  Uiso   1.00
C477   C     0.52688   0.62492   0.89754   0.00000  Uiso   1.00
C478   C     0.56576   0.69756   0.03667   0.00000  Uiso   1.00
C479   C     0.54921   0.64465  -0.00501   0.00000  Uiso   1.00
C480   C     0.55275   0.67270  -0.01278   0.00000  Uiso   1.00
C481   C     0.53060   0.65297   0.88840   0.00000  Uiso   1.00
C482   C     0.53590   0.62053  -0.04924   0.00000  Uiso   1.00
H483   H     0.54719   0.70221   0.05017   0.00000  Uiso   1.00
N484   N     0.54497   0.83819   0.92737   0.00000  Uiso   1.00
N485   N     0.54332   0.70421   0.92834   0.00000  Uiso   1.00
H486   H     0.58834   0.71940   0.02240   0.00000  Uiso   1.00
H487   H     0.52778   0.90786   0.85621   0.00000  Uiso   1.00
H488   H     0.54627   0.91555   0.04012   0.00000  Uiso   1.00
H489   H     0.52886   0.87113   0.79132   0.00000  Uiso   1.00
H490   H     0.55639   0.86162   0.81164   0.00000  Uiso   1.00
H491   H     0.51302   0.83523   0.82548   0.00000  Uiso   1.00
H492   H     0.58206   0.87383   0.03127   0.00000  Uiso   1.00
H493   H     0.56251   0.88672   0.08096   0.00000  Uiso   1.00
H494   H     0.53935   0.84714   0.04993   0.00000  Uiso   1.00
O495   O     0.48855   0.80919  -0.04815   0.00000  Uiso   1.00
O496   O     0.60137   0.86853   0.90285   0.00000  Uiso   1.00
H497   H     0.62433   0.83626   0.88825   0.00000  Uiso   1.00
H498   H     0.46411   0.75257  -0.03823   0.00000  Uiso   1.00
H499   H     0.62365   0.78936   0.88768   0.00000  Uiso   1.00
H500   H     0.49382   0.63837   0.82395   0.00000  Uiso   1.00
H501   H     0.52550   0.67958   0.82636   0.00000  Uiso   1.00
H502   H     0.51637   0.60628   0.86333   0.00000  Uiso   1.00
H503   H     0.46362   0.70595  -0.03722   0.00000  Uiso   1.00
H504   H     0.57185   0.69043   0.07555   0.00000  Uiso   1.00
O505   O     0.48731   0.67461  -0.04419   0.00000  Uiso   1.00
O506   O     0.59926   0.73251   0.90047   0.00000  Uiso   1.00
H507   H     0.53393   0.65245   0.79458   0.00000  Uiso   1.00
H508   H     0.42501   0.06639   1.01849   0.00000  Uiso   1.00
C509   C     0.47203   0.38055   1.05084   0.00000  Uiso   1.00
C510   C     0.48478   0.37880   0.10234   0.00000  Uiso   1.00
C511   C     0.48191   0.35141   0.11377   0.00000  Uiso   1.00
C512   C     0.46586   0.32533   1.07306   0.00000  Uiso   1.00
C513   C     0.45175   0.32657   1.02238   0.00000  Uiso   1.00
C514   C     0.45491   0.35416   1.01181   0.00000  Uiso   1.00
C515   C     0.49678   0.35039   0.16836   0.00000  Uiso   1.00
C516   C     0.43394   0.29878   0.97902   0.00000  Uiso   1.00
C517   C     0.44208   0.27511   0.11400   0.00000  Uiso   1.00
C518   C     0.44145   0.24828   0.12048   0.00000  Uiso   1.00
C519   C     0.46533   0.24553   0.09153   0.00000  Uiso   1.00
C520   C     0.48966   0.26971   1.05762   0.00000  Uiso   1.00
C521   C     0.48964   0.29628   1.05333   0.00000  Uiso   1.00
C522   C     0.41748   0.22410   0.15459   0.00000  Uiso   1.00
C523   C     0.41712   0.19745   0.15958   0.00000  Uiso   1.00
C524   C     0.44049   0.19422   0.13005   0.00000  Uiso   1.00
C525   C     0.46468   0.21839   0.09592   0.00000  Uiso   1.00
C526   C     0.48806   0.21537   1.06566   0.00000  Uiso   1.00
C527   C     0.51229   0.23972   1.03217   0.00000  Uiso   1.00
C528   C     0.51316   0.26665   1.02841   0.00000  Uiso   1.00
C529   C     0.44009   0.16723   0.13293   0.00000  Uiso   1.00
C530   C     0.48628   0.18777   1.06891   0.00000  Uiso   1.00
C531   C     0.46002   0.13540   0.10021   0.00000  Uiso   1.00
C532   C     0.50450   0.15903   0.17692   0.00000  Uiso   1.00
C533   C     0.48423   0.10789   0.12144   0.00000  Uiso   1.00
C534   C     0.41490   0.11191   1.02480   0.00000  Uiso   1.00
C535   C     0.44066   0.08488   1.05077   0.00000  Uiso   1.00
C536   C     0.43854   0.11045   1.06029   0.00000  Uiso   1.00
C537   C     0.48197   0.13333   0.13283   0.00000  Uiso   1.00
C538   C     0.46457   0.08425   1.07888   0.00000  Uiso   1.00
H539   H     0.42840   0.13279   0.99857   0.00000  Uiso   1.00
N540   N     0.46593   0.29837   1.08082   0.00000  Uiso   1.00
N541   N     0.46242   0.16427   0.10176   0.00000  Uiso   1.00
H542   H     0.39733   0.11319   1.05423   0.00000  Uiso   1.00
H543   H     0.49779   0.39909   0.13280   0.00000  Uiso   1.00
H544   H     0.44467   0.35532   0.97230   0.00000  Uiso   1.00
H545   H     0.50878   0.37280   0.19529   0.00000  Uiso   1.00
H546   H     0.47748   0.33168   0.19549   0.00000  Uiso   1.00
H547   H     0.51543   0.34564   0.15648   0.00000  Uiso   1.00
H548   H     0.41363   0.27828   1.00136   0.00000  Uiso   1.00
H549   H     0.42341   0.30319   0.94272   0.00000  Uiso   1.00
H550   H     0.45094   0.29316   0.95965   0.00000  Uiso   1.00
O551   O     0.51329   0.32013   1.02066   0.00000  Uiso   1.00
O552   O     0.41852   0.27788   0.14051   0.00000  Uiso   1.00
H553   H     0.39890   0.22567   0.17741   0.00000  Uiso   1.00
H554   H     0.53213   0.28494   1.00211   0.00000  Uiso   1.00
H555   H     0.39826   0.17928   0.18617   0.00000  Uiso   1.00
H556   H     0.49075   0.16576   0.20588   0.00000  Uiso   1.00
H557   H     0.51600   0.15158   0.20512   0.00000  Uiso   1.00
H558   H     0.50256   0.10736   0.14360   0.00000  Uiso   1.00
H559   H     0.53061   0.23803   1.00857   0.00000  Uiso   1.00
H560   H     0.40069   0.09102   0.99410   0.00000  Uiso   1.00
O561   O     0.50812   0.18402   1.03767   0.00000  Uiso   1.00
O562   O     0.41680   0.14350   0.16613   0.00000  Uiso   1.00
H563   H     0.52416   0.17963   0.15401   0.00000  Uiso   1.00
loop_
_geom_bond_atom_site_label_1
_geom_bond_atom_site_label_2
_geom_bond_distance
_geom_bond_site_symmetry_2
_ccdc_geom_bond_type
Y0     O2      2.250   .     S
Y0     O6      2.246   .     S
Y0     O9      2.257   .     S
Y0     O10     2.274   .     S
Y0     O11     2.285   .     S
Y0     O3      2.261   1_554 S
Y0     O7      2.267   1_554 S
Y1     O3      2.260   .     S
Y1     O5      2.275   .     S
Y1     O8      2.284   .     S
Y1     O13     2.248   .     S
Y1     O15     2.250   .     S
Y1     O9      2.259   1_556 S
Y1     O16     2.264   1_556 S
O2     C12     1.283   1_554 A
O3     C14     1.369   .     S
O3     Y0      2.261   1_556 S
C4     O15     1.259   .     A
C4     C509    1.473   .     S
C4     O16     1.261   1_556 A
O5     C14     1.210   .     D
O6     C17     1.258   .     A
O7     Y0      2.267   1_556 S
O7     C17     1.263   1_556 A
O8     C12     1.286   .     A
O9     C19     1.369   .     S
O9     Y1      2.259   1_554 S
O10    C19     1.209   .     D
O11    C18     1.287   .     A
C12    O2      1.283   1_556 A
C12    C370    1.464   1_556 S
O13    C18     1.283   1_556 A
C14    C90     1.474   .     S
O16    Y1      2.264   1_554 S
O16    C4      1.261   1_554 A
C17    C482    1.474   .     S
C17    O7      1.263   1_554 A
C18    O13     1.283   1_554 A
C18    C229    1.475   1_554 S
C19    C61     1.473   .     S
Y20    O26     2.243   .     S
Y20    O30     2.266   .     S
Y20    O31     2.269   .     S
Y20    O22     2.243   1_655 S
Y20    O23     2.264   1_554 S
Y20    O27     2.276   1_554 S
Y20    O29     2.264   1_655 S
Y21    O25     2.262   .     S
Y21    O28     2.273   .     S
Y21    O35     2.250   .     S
Y21    O23     2.261   1_455 S
Y21    O29     2.266   1_556 S
Y21    O33     2.257   1_455 S
Y21    O36     2.269   1_556 S
O22    Y20     2.243   1_455 S
O22    C32     1.283   1_554 A
O23    Y20     2.264   1_556 S
O23    Y21     2.261   1_655 S
O23    C34     1.375   1_655 S
C24    O35     1.259   .     A
C24    O36     1.263   1_556 A
C24    C258    1.477   1_556 S
O25    C34     1.210   .     D
O26    C37     1.257   .     A
O27    Y20     2.276   1_556 S
O27    C37     1.263   1_556 A
O28    C32     1.286   .     A
O29    C39     1.372   .     S
O29    Y20     2.264   1_455 S
O29    Y21     2.266   1_554 S
O30    C39     1.208   1_655 D
O31    C38     1.286   .     A
C32    O22     1.283   1_556 A
C32    C426    1.477   1_556 S
O33    Y21     2.257   1_655 S
O33    C38     1.285   1_556 A
C34    C117    1.472   .     S
C34    O23     1.375   1_455 S
O36    Y21     2.269   1_554 S
O36    C24     1.263   1_554 A
C37    O27     1.263   1_554 A
C37    C341    1.476   1_554 S
C38    O33     1.285   1_554 A
C38    C285    1.478   1_554 S
C39    C146    1.472   .     S
C39    O30     1.208   1_455 D
Y40    O46     2.247   .     S
Y40    O50     2.270   .     S
Y40    O51     2.264   .     S
Y40    O42     2.245   1_545 S
Y40    O43     2.272   1_556 S
Y40    O47     2.260   1_556 S
Y40    O49     2.252   1_545 S
Y41    O45     2.262   .     S
Y41    O48     2.261   .     S
Y41    O55     2.241   .     S
Y41    O43     2.257   1_565 S
Y41    O49     2.237   1_554 S
Y41    O53     2.243   1_565 S
Y41    O56     2.269   1_554 S
O42    Y40     2.245   1_565 S
O42    C52     1.282   1_556 A
O43    C54     1.374   .     S
O43    Y40     2.272   1_554 S
O43    Y41     2.257   1_545 S
C44    O55     1.259   .     A
C44    C453    1.472   .     S
C44    O56     1.264   1_554 A
O45    C54     1.210   1_565 D
O46    C57     1.260   .     A
O47    Y40     2.260   1_554 S
O47    C57     1.265   1_554 A
O48    C52     1.285   .     A
O49    Y40     2.252   1_565 S
O49    Y41     2.237   1_556 S
O49    C59     1.368   1_565 S
O50    C59     1.209   .     D
O51    C58     1.285   .     A
C52    O42     1.282   1_554 A
C52    C397    1.478   1_554 S
O53    Y41     2.243   1_545 S
O53    C58     1.282   1_554 A
C54    C173    1.470   .     S
C54    O45     1.210   1_545 D
O56    Y41     2.269   1_556 S
O56    C44     1.264   1_556 A
C57    C538    1.475   .     S
C57    O47     1.265   1_556 A
C58    O53     1.282   1_556 A
C58    C314    1.461   1_556 S
C59    C202    1.467   .     S
C59    O49     1.368   1_545 S
H60    C87     1.084   .     S
C61    C62     1.402   .     A
C61    C66     1.402   .     A
C62    C63     1.403   .     A
C62    H95     1.084   .     S
C63    C64     1.411   .     A
C63    C67     1.505   .     S
C64    C65     1.411   .     A
C64    N92     1.441   .     S
C65    C66     1.403   .     A
C65    C68     1.505   .     S
C66    H96     1.084   .     S
C67    H97     1.110   .     S
C67    H98     1.110   .     S
C67    H99     1.110   .     S
C68    H100    1.110   .     S
C68    H101    1.111   .     S
C68    H102    1.110   .     S
C69    C70     1.405   .     A
C69    N92     1.370   .     A
C69    O104    1.373   .     S
C70    C71     1.408   .     A
C70    C74     1.406   .     A
C71    C72     1.410   .     A
C71    C77     1.415   .     A
C72    C73     1.406   .     A
C72    C80     1.404   .     A
C73    N92     1.369   .     A
C73    O103    1.373   .     S
C74    C75     1.397   .     A
C74    H105    1.083   .     S
C75    C76     1.405   .     A
C75    H107    1.083   .     S
C76    C77     1.410   .     A
C76    C81     1.407   .     A
C77    C78     1.408   .     A
C78    C79     1.406   .     A
C78    C82     1.406   .     A
C79    C80     1.397   .     A
C79    H111    1.083   .     S
C80    H106    1.083   .     S
C81    N93     1.368   .     A
C81    O114    1.373   .     S
C82    N93     1.372   .     A
C82    O113    1.372   .     S
C83    C88     1.413   .     A
C83    C89     1.415   .     A
C83    N93     1.443   .     S
C84    C89     1.505   .     S
C84    H108    1.109   .     S
C84    H109    1.108   .     S
C84    H115    1.110   .     S
C85    C89     1.402   .     A
C85    C90     1.401   .     A
C85    H110    1.085   .     S
C86    C88     1.504   .     S
C86    H91     1.109   .     S
C86    H94     1.109   .     S
C86    H112    1.110   .     S
C87    C88     1.404   .     A
C87    C90     1.401   .     A
H116   C143    1.084   .     S
C117   C122    1.402   .     A
C117   C118    1.400   1_455 A
C118   C119    1.404   .     A
C118   H151    1.084   .     S
C118   C117    1.400   1_655 A
C119   C120    1.412   .     A
C119   C123    1.504   .     S
C120   N148    1.442   .     S
C120   C121    1.411   1_655 A
C121   C122    1.402   .     A
C121   C124    1.505   .     S
C121   C120    1.411   1_455 A
C122   H152    1.084   .     S
C123   H153    1.110   .     S
C123   H154    1.109   .     S
C123   H155    1.110   .     S
C124   H156    1.110   .     S
C124   H157    1.110   .     S
C124   H158    1.109   .     S
C125   C126    1.404   .     A
C125   O160    1.373   .     S
C125   N148    1.371   1_455 A
C126   C130    1.406   .     A
C126   C127    1.408   1_455 A
C127   C128    1.410   .     A
C127   C133    1.414   .     A
C127   C126    1.408   1_655 A
C128   C129    1.406   .     A
C128   C136    1.405   .     A
C129   N148    1.369   .     A
C129   O159    1.373   .     S
C130   C131    1.397   .     A
C130   H161    1.083   .     S
C131   C132    1.405   .     A
C131   H163    1.083   .     S
C132   C137    1.406   .     A
C132   C133    1.410   1_455 A
C133   C134    1.408   .     A
C133   C132    1.410   1_655 A
C134   C135    1.406   .     A
C134   C138    1.404   .     A
C135   C136    1.397   .     A
C135   H167    1.083   .     S
C136   H162    1.083   .     S
C137   O170    1.372   .     S
C137   N149    1.369   1_455 A
C138   N149    1.370   .     A
C138   O169    1.373   .     S
C139   C144    1.413   .     A
C139   C145    1.414   1_455 A
C139   N149    1.440   1_455 S
C140   C145    1.507   .     S
C140   H164    1.110   .     S
C140   H165    1.108   .     S
C140   H171    1.110   .     S
C141   C145    1.400   .     A
C141   H166    1.085   .     S
C141   C146    1.402   1_655 A
C142   C144    1.504   .     S
C142   H147    1.110   .     S
C142   H150    1.110   .     S
C142   H168    1.111   .     S
C143   C144    1.404   .     A
C143   C146    1.400   .     A
C145   C139    1.414   1_655 A
C146   C141    1.402   1_455 A
N148   C125    1.371   1_655 A
N149   C137    1.369   1_655 A
N149   C139    1.440   1_655 S
H172   C199    1.084   .     S
C173   C174    1.399   .     A
C173   C178    1.402   1_545 A
C174   C175    1.402   .     A
C174   H207    1.084   .     S
C175   C176    1.414   .     A
C175   C179    1.505   .     S
C176   C177    1.412   .     A
C176   N204    1.441   .     S
C177   C178    1.401   1_545 A
C177   C180    1.506   1_545 S
C178   H208    1.084   .     S
C178   C173    1.402   1_565 A
C178   C177    1.401   1_565 A
C179   H209    1.112   .     S
C179   H210    1.110   .     S
C179   H211    1.110   .     S
C180   H212    1.111   .     S
C180   H213    1.111   .     S
C180   C177    1.506   1_565 S
C180   H214    1.110   1_565 S
C181   C182    1.403   .     A
C181   O216    1.374   .     S
C181   N204    1.371   1_565 A
C182   C186    1.405   .     A
C182   C183    1.408   1_565 A
C183   C184    1.410   .     A
C183   C189    1.414   .     A
C183   C182    1.408   1_545 A
C184   C185    1.407   .     A
C184   C192    1.405   .     A
C185   N204    1.369   .     A
C185   O215    1.372   .     S
C186   C187    1.396   .     A
C186   H217    1.083   .     S
C187   C188    1.405   .     A
C187   H219    1.083   .     S
C188   C193    1.405   .     A
C188   C189    1.410   1_565 A
C189   C190    1.408   .     A
C189   C188    1.410   1_545 A
C190   C191    1.405   .     A
C190   C194    1.404   .     A
C191   C192    1.397   .     A
C191   H223    1.083   .     S
C192   H218    1.083   .     S
C193   O226    1.373   .     S
C193   N205    1.369   1_565 A
C194   N205    1.371   .     A
C194   O225    1.373   .     S
C195   C200    1.414   .     A
C195   C201    1.415   .     A
C195   N205    1.440   .     S
C196   C201    1.508   .     S
C196   H220    1.111   .     S
C196   H221    1.109   .     S
C196   H227    1.111   1_545 S
C197   C201    1.398   .     A
C197   C202    1.399   .     A
C197   H222    1.085   .     S
C198   C200    1.505   .     S
C198   H203    1.110   .     S
C198   H224    1.111   .     S
C198   H206    1.109   1_545 S
C199   C200    1.403   .     A
C199   C202    1.398   .     A
N204   C181    1.371   1_545 A
N205   C193    1.369   1_545 A
H206   C198    1.109   1_565 S
H214   C180    1.110   1_545 S
H227   C196    1.111   1_565 S
H228   C255    1.084   .     S
C229   C234    1.400   .     A
C229   C230    1.404   1_556 A
C229   C18     1.475   1_556 S
C230   C231    1.405   .     A
C230   H263    1.084   .     S
C230   C229    1.404   1_554 A
C231   C232    1.412   .     A
C231   C235    1.506   .     S
C232   N260    1.441   .     S
C232   C233    1.413   1_554 A
C233   C234    1.402   .     A
C233   C236    1.505   .     S
C233   C232    1.413   1_556 A
C234   H264    1.084   .     S
C235   H265    1.112   .     S
C235   H266    1.111   .     S
C235   H267    1.111   .     S
C236   H268    1.110   .     S
C236   H269    1.111   .     S
C236   H270    1.111   .     S
C237   C238    1.403   .     A
C237   N260    1.370   .     A
C237   O272    1.374   .     S
C238   C239    1.408   .     A
C238   C242    1.405   .     A
C239   C245    1.415   .     A
C239   C240    1.409   1_554 A
C240   C241    1.408   .     A
C240   C248    1.406   .     A
C240   C239    1.409   1_556 A
C241   O271    1.373   .     S
C241   N260    1.371   1_556 A
C242   C243    1.396   .     A
C242   H273    1.083   .     S
C243   C244    1.405   .     A
C243   H275    1.083   .     S
C244   C245    1.409   .     A
C244   C249    1.405   .     A
C245   C246    1.409   1_554 A
C246   C247    1.406   .     A
C246   C250    1.407   .     A
C246   C245    1.409   1_556 A
C247   C248    1.399   .     A
C247   H279    1.083   .     S
C248   H274    1.083   .     S
C249   N261    1.370   .     A
C249   O282    1.373   .     S
C250   O281    1.373   .     S
C250   N261    1.371   1_556 A
C251   C257    1.417   .     A
C251   N261    1.442   .     S
C251   C256    1.414   1_554 A
C252   C257    1.505   .     S
C252   H276    1.112   .     S
C252   H277    1.109   .     S
C252   H283    1.111   .     S
C253   C257    1.405   .     A
C253   C258    1.401   .     A
C253   H278    1.083   .     S
C254   C256    1.509   .     S
C254   H259    1.110   .     S
C254   H262    1.111   .     S
C254   H280    1.111   .     S
C255   C256    1.401   .     A
C255   C258    1.402   1_556 A
C256   C251    1.414   1_556 A
C258   C255    1.402   1_554 A
C258   C24     1.477   1_554 S
N260   C241    1.371   1_554 A
N261   C250    1.371   1_554 A
H284   C311    1.084   .     S
C285   C290    1.402   .     A
C285   C286    1.404   1_556 A
C285   C38     1.478   1_556 S
C286   C287    1.405   .     A
C286   H319    1.084   .     S
C286   C285    1.404   1_554 A
C287   C288    1.413   .     A
C287   C291    1.506   .     S
C288   N316    1.440   .     S
C288   C289    1.412   1_554 A
C289   C290    1.401   .     A
C289   C292    1.507   .     S
C289   C288    1.412   1_556 A
C290   H320    1.083   .     S
C291   H321    1.111   .     S
C291   H322    1.110   .     S
C291   H323    1.110   .     S
C292   H324    1.110   .     S
C292   H325    1.112   .     S
C292   H326    1.111   .     S
C293   C294    1.404   .     A
C293   N316    1.370   .     A
C293   O328    1.373   .     S
C294   C295    1.409   .     A
C294   C298    1.405   .     A
C295   C301    1.414   .     A
C295   C296    1.409   1_554 A
C296   C297    1.407   .     A
C296   C304    1.406   .     A
C296   C295    1.409   1_556 A
C297   O327    1.373   .     S
C297   N316    1.370   1_556 A
C298   C299    1.396   .     A
C298   H329    1.083   .     S
C299   C300    1.405   .     A
C299   H331    1.083   .     S
C300   C301    1.408   .     A
C300   C305    1.404   .     A
C301   C302    1.409   1_554 A
C302   C303    1.406   .     A
C302   C306    1.408   .     A
C302   C301    1.409   1_556 A
C303   C304    1.399   .     A
C303   H335    1.083   .     S
C304   H330    1.083   .     S
C305   N317    1.370   .     A
C305   O338    1.373   .     S
C306   O337    1.373   .     S
C306   N317    1.370   1_556 A
C307   C313    1.416   .     A
C307   N317    1.440   .     S
C307   C312    1.416   1_554 A
C308   C313    1.505   .     S
C308   H332    1.111   .     S
C308   H333    1.108   .     S
C308   H339    1.110   .     S
C309   C313    1.400   .     A
C309   C314    1.397   .     A
C309   H334    1.085   .     S
C310   C312    1.506   .     S
C310   H315    1.110   .     S
C310   H318    1.110   .     S
C310   H336    1.111   .     S
C311   C312    1.403   .     A
C311   C314    1.397   1_556 A
C312   C307    1.416   1_556 A
C314   C311    1.397   1_554 A
C314   C58     1.461   1_554 S
N316   C297    1.370   1_554 A
N317   C306    1.370   1_554 A
H340   C367    1.085   .     S
C341   C342    1.403   .     A
C341   C346    1.402   1_556 A
C341   C37     1.476   1_556 S
C342   C343    1.407   .     A
C342   H375    1.084   .     S
C343   C344    1.414   .     A
C343   C347    1.506   .     S
C344   N372    1.440   .     S
C344   C345    1.411   1_556 A
C345   C346    1.398   .     A
C345   C348    1.507   .     S
C345   C344    1.411   1_554 A
C346   H376    1.084   .     S
C346   C341    1.402   1_554 A
C347   H377    1.111   .     S
C347   H378    1.110   .     S
C347   H379    1.110   .     S
C348   H380    1.110   .     S
C348   H381    1.111   .     S
C348   H382    1.110   .     S
C349   O384    1.374   .     S
C349   C350    1.403   1_554 A
C349   N372    1.370   1_554 A
C350   C351    1.409   .     A
C350   C349    1.403   1_556 A
C350   C354    1.404   1_556 A
C351   C352    1.409   .     A
C351   C357    1.414   .     A
C352   C353    1.408   .     A
C352   C360    1.406   .     A
C353   N372    1.371   .     A
C353   O383    1.373   .     S
C354   C355    1.395   .     A
C354   H385    1.083   .     S
C354   C350    1.404   1_554 A
C355   H387    1.083   .     S
C355   C356    1.405   1_554 A
C356   C357    1.408   .     A
C356   C355    1.405   1_556 A
C356   C361    1.402   1_556 A
C357   C358    1.409   .     A
C358   C359    1.406   .     A
C358   C362    1.408   .     A
C359   C360    1.399   .     A
C359   H391    1.083   .     S
C360   H386    1.083   .     S
C361   O394    1.374   .     S
C361   C356    1.402   1_554 A
C361   N373    1.371   1_554 A
C362   N373    1.371   .     A
C362   O393    1.373   .     S
C363   C369    1.417   .     A
C363   N373    1.441   .     S
C363   C368    1.416   1_556 A
C364   C369    1.507   .     S
C364   H388    1.112   .     S
C364   H389    1.108   .     S
C364   H395    1.111   .     S
C365   C369    1.402   .     A
C365   H390    1.085   .     S
C365   C370    1.399   1_556 A
C366   C368    1.506   .     S
C366   H371    1.111   .     S
C366   H374    1.110   .     S
C366   H392    1.112   .     S
C367   C368    1.402   .     A
C367   C370    1.397   .     A
C368   C363    1.416   1_554 A
C370   C365    1.399   1_554 A
C370   C12     1.464   1_554 S
N372   C349    1.370   1_556 A
N373   C361    1.371   1_556 A
H396   C423    1.084   .     S
C397   C398    1.402   .     A
C397   C402    1.406   1_556 A
C397   C52     1.478   1_556 S
C398   C399    1.400   .     A
C398   H431    1.084   .     S
C399   C400    1.411   .     A
C399   C403    1.505   .     S
C400   C401    1.409   .     A
C400   N428    1.439   .     S
C401   C402    1.404   1_556 A
C401   C404    1.504   1_556 S
C402   H432    1.084   .     S
C402   C397    1.406   1_554 A
C402   C401    1.404   1_554 A
C403   H433    1.110   .     S
C403   H434    1.110   .     S
C403   H435    1.109   .     S
C404   H436    1.110   .     S
C404   H437    1.110   .     S
C404   C401    1.504   1_554 S
C404   H438    1.110   1_554 S
C405   C406    1.404   .     A
C405   O440    1.373   .     S
C405   N428    1.370   1_554 A
C406   C410    1.405   .     A
C406   C407    1.409   1_554 A
C407   C408    1.409   .     A
C407   C413    1.413   .     A
C407   C406    1.409   1_556 A
C408   C409    1.404   .     A
C408   C416    1.405   .     A
C409   N428    1.369   .     A
C409   O439    1.373   .     S
C410   C411    1.397   .     A
C410   H441    1.083   .     S
C411   C412    1.405   .     A
C411   H443    1.083   .     S
C412   C417    1.405   .     A
C412   C413    1.409   1_554 A
C413   C414    1.409   .     A
C413   C412    1.409   1_556 A
C414   C415    1.405   .     A
C414   C418    1.405   .     A
C415   C416    1.397   .     A
C415   H447    1.083   .     S
C416   H442    1.083   .     S
C417   O450    1.373   .     S
C417   N429    1.370   1_554 A
C418   N429    1.370   .     A
C418   O449    1.373   .     S
C419   C424    1.411   .     A
C419   C425    1.414   .     A
C419   N429    1.440   .     S
C420   C425    1.507   .     S
C420   H444    1.110   .     S
C420   H445    1.108   1_556 S
C420   H451    1.110   1_556 S
C421   C426    1.401   .     A
C421   H446    1.084   .     S
C421   C425    1.401   1_554 A
C422   C424    1.505   .     S
C422   H427    1.109   .     S
C422   H448    1.110   .     S
C422   H430    1.110   1_556 S
C423   C424    1.403   .     A
C423   C426    1.404   1_556 A
C425   C421    1.401   1_556 A
C426   C423    1.404   1_554 A
C426   C32     1.477   1_554 S
N428   C405    1.370   1_556 A
N429   C417    1.370   1_556 A
H430   C422    1.110   1_554 S
H438   C404    1.110   1_556 S
H445   C420    1.108   1_554 S
H451   C420    1.110   1_554 S
H452   C479    1.084   .     S
C453   C458    1.402   .     A
C453   C454    1.401   1_554 A
C454   C455    1.406   .     A
C454   H487    1.083   .     S
C454   C453    1.401   1_556 A
C455   C456    1.413   .     A
C455   C459    1.505   .     S
C456   N484    1.439   .     S
C456   C457    1.410   1_556 A
C457   C458    1.399   .     A
C457   C460    1.507   .     S
C457   C456    1.410   1_554 A
C458   H488    1.084   .     S
C459   H489    1.111   .     S
C459   H490    1.111   .     S
C459   H491    1.111   .     S
C460   H492    1.111   .     S
C460   H493    1.111   .     S
C460   H494    1.110   .     S
C461   C462    1.407   .     A
C461   N484    1.370   .     A
C461   O496    1.373   .     S
C462   C463    1.410   .     A
C462   C466    1.405   .     A
C463   C469    1.414   .     A
C463   C464    1.408   1_556 A
C464   C465    1.402   .     A
C464   C472    1.404   .     A
C464   C463    1.408   1_554 A
C465   O495    1.374   .     S
C465   N484    1.369   1_554 A
C466   C467    1.399   .     A
C466   H497    1.083   .     S
C467   C468    1.407   .     A
C467   H499    1.083   .     S
C468   C469    1.409   .     A
C468   C473    1.408   .     A
C469   C470    1.409   1_556 A
C470   C471    1.405   .     A
C470   C474    1.403   .     A
C470   C469    1.409   1_554 A
C471   C472    1.395   .     A
C471   H503    1.083   .     S
C472   H498    1.083   .     S
C473   N485    1.371   .     A
C473   O506    1.373   .     S
C474   O505    1.374   .     S
C474   N485    1.370   1_554 A
C475   C481    1.416   .     A
C475   N485    1.441   .     S
C475   C480    1.412   1_556 A
C476   C481    1.505   .     S
C476   H500    1.111   .     S
C476   H501    1.109   .     S
C476   H507    1.111   .     S
C477   C481    1.403   .     A
C477   H502    1.084   .     S
C477   C482    1.400   1_556 A
C478   C480    1.507   .     S
C478   H483    1.111   .     S
C478   H486    1.110   .     S
C478   H504    1.111   .     S
C479   C480    1.401   .     A
C479   C482    1.402   .     A
C480   C475    1.412   1_554 A
C482   C477    1.400   1_554 A
N484   C465    1.369   1_556 A
N485   C474    1.370   1_556 A
H508   C535    1.083   .     S
C509   C514    1.402   .     A
C509   C510    1.401   1_556 A
C510   C511    1.403   .     A
C510   H543    1.084   .     S
C510   C509    1.401   1_554 A
C511   C515    1.505   .     S
C511   C512    1.413   1_554 A
C512   C513    1.412   .     A
C512   N540    1.439   .     S
C512   C511    1.413   1_556 A
C513   C514    1.401   .     A
C513   C516    1.507   .     S
C514   H544    1.084   .     S
C515   H545    1.111   .     S
C515   H546    1.110   .     S
C515   H547    1.110   .     S
C516   H548    1.110   .     S
C516   H549    1.111   .     S
C516   H550    1.110   .     S
C517   C518    1.407   .     A
C517   O552    1.373   .     S
C517   N540    1.370   1_554 A
C518   C519    1.409   .     A
C518   C522    1.406   .     A
C519   C525    1.415   .     A
C519   C520    1.409   1_554 A
C520   C521    1.403   .     A
C520   C528    1.404   .     A
C520   C519    1.409   1_556 A
C521   N540    1.369   .     A
C521   O551    1.374   .     S
C522   C523    1.399   .     A
C522   H553    1.083   .     S
C523   C524    1.407   .     A
C523   H555    1.083   .     S
C524   C525    1.409   .     A
C524   C529    1.409   .     A
C525   C526    1.408   1_554 A
C526   C527    1.406   .     A
C526   C530    1.404   .     A
C526   C525    1.408   1_556 A
C527   C528    1.396   .     A
C527   H559    1.083   .     S
C528   H554    1.083   .     S
C529   N541    1.371   .     A
C529   O562    1.372   .     S
C530   O561    1.373   .     S
C530   N541    1.371   1_556 A
C531   C537    1.414   .     A
C531   N541    1.444   .     S
C531   C536    1.413   1_554 A
C532   C537    1.503   .     S
C532   H556    1.109   .     S
C532   H557    1.111   .     S
C532   H563    1.109   .     S
C533   C537    1.404   .     A
C533   H558    1.083   .     S
C533   C538    1.399   1_554 A
C534   C536    1.506   .     S
C534   H539    1.110   .     S
C534   H542    1.109   .     S
C534   H560    1.111   .     S
C535   C536    1.402   .     A
C535   C538    1.402   .     A
C536   C531    1.413   1_556 A
C538   C533    1.399   1_556 A
N540   C517    1.370   1_556 A
N541   C530    1.371   1_554 A
