data_kag+N144+E229
_audit_creation_date              2025-01-21
_audit_creation_method            'Materials Studio'
_symmetry_space_group_name_H-M    'P1'
_symmetry_Int_Tables_number       1
_symmetry_cell_setting            triclinic
loop_
_symmetry_equiv_pos_as_xyz
  x,y,z
_cell_length_a                    45.4772
_cell_length_b                    46.9060
_cell_length_c                    22.8699
_cell_angle_alpha                 87.7428
_cell_angle_beta                  100.8301
_cell_angle_gamma                 117.8622
loop_
_atom_site_label
_atom_site_type_symbol
_atom_site_fract_x
_atom_site_fract_y
_atom_site_fract_z
_atom_site_U_iso_or_equiv
_atom_site_adp_type
_atom_site_occupancy
C0     C     0.63746   0.60220   0.92280   0.00000  Uiso   1.00
Er1    Er    0.52952   0.53688   0.00652   0.00000  Uiso   1.00
Er2    Er    0.58377   0.56816  -0.00441   0.00000  Uiso   1.00
C3     C     0.54270   0.60303  -0.04273   0.00000  Uiso   1.00
O4     O     0.56940   0.54706   0.90548   0.00000  Uiso   1.00
C5     C     0.57369   0.58021   0.11699   0.00000  Uiso   1.00
C6     C     0.57407   0.50463   0.04507   0.00000  Uiso   1.00
C7     C     0.46567   0.52412   0.99364   0.00000  Uiso   1.00
O8     O     0.62195   0.61541   0.89546   0.00000  Uiso   1.00
O9     O     0.63677   0.59733   0.98303   0.00000  Uiso   1.00
O10    O     0.59636   0.53036   0.02775   0.00000  Uiso   1.00
O11    O     0.54452   0.50118   0.04270   0.00000  Uiso   1.00
O12    O     0.59652   0.58816   0.08580   0.00000  Uiso   1.00
O13    O     0.54310   0.55992   0.09526   0.00000  Uiso   1.00
C14    C     0.53990   0.52426   0.88573   0.00000  Uiso   1.00
O15    O     0.51758   0.51440   0.91820   0.00000  Uiso   1.00
O16    O     0.57273   0.60694  -0.03566   0.00000  Uiso   1.00
O17    O     0.51909   0.57604  -0.03103   0.00000  Uiso   1.00
O18    O     0.47734   0.50603   1.01813   0.00000  Uiso   1.00
O19    O     0.48876   0.55010   0.97809   0.00000  Uiso   1.00
C20    C     0.94670   0.43495   1.00320   0.00000  Uiso   1.00
Er21   Er    0.06529   0.53831   0.05802   0.00000  Uiso   1.00
Er22   Er    1.01965   0.49007   0.02056   0.00000  Uiso   1.00
C23    C     0.08681   0.49257   0.01341   0.00000  Uiso   1.00
O24    O     0.01474   0.50756   0.93247   0.00000  Uiso   1.00
C25    C     0.04286   0.48936   0.15279   0.00000  Uiso   1.00
C26    C     0.99915   0.53691   0.06563   0.00000  Uiso   1.00
C27    C     0.11034   0.59715   1.03908   0.00000  Uiso   1.00
O28    O     0.93320   0.45192   0.98813   0.00000  Uiso   1.00
O29    O     0.97708   0.44198   0.98616   0.00000  Uiso   1.00
O30    O     0.98675   0.50824   0.04326   0.00000  Uiso   1.00
O31    O     0.03094   0.55549   0.07497   0.00000  Uiso   1.00
O32    O     0.02277   0.47112   0.10794   0.00000  Uiso   1.00
O33    O     0.06374   0.51842   0.14588   0.00000  Uiso   1.00
C34    C     0.03646   0.53557   0.92287   0.00000  Uiso   1.00
O35    O     0.06069   0.55319   0.96508   0.00000  Uiso   1.00
O36    O     0.05489   0.47457  -0.00055   0.00000  Uiso   1.00
O37    O     0.09856   0.51996   0.04050   0.00000  Uiso   1.00
O38    O     0.08751   0.57716   0.99847   0.00000  Uiso   1.00
O39    O     0.10883   0.58555   1.08998   0.00000  Uiso   1.00
C40    C     0.48021   0.09905   0.94905   0.00000  Uiso   1.00
Er41   Er    0.52253   1.01364   0.00595   0.00000  Uiso   1.00
Er42   Er    0.49916   0.04747   0.00225   0.00000  Uiso   1.00
C43    C     0.45095   0.98057   0.03170   0.00000  Uiso   1.00
O44    O     0.47639   0.03226   0.90919   0.00000  Uiso   1.00
C45    C     0.53804   0.04974   0.12532   0.00000  Uiso   1.00
C46    C     0.57024   0.08083  -0.02465   0.00000  Uiso   1.00
C47    C     0.53532   0.97114   0.95840   0.00000  Uiso   1.00
O48    O     0.49899   0.09962   0.91698   0.00000  Uiso   1.00
O49    O     0.47473   0.07927   0.99721   0.00000  Uiso   1.00
O50    O     0.54490   0.08523  -0.02250   0.00000  Uiso   1.00
O51    O     0.56889   0.05345  -0.01340   0.00000  Uiso   1.00
O52    O     0.52105   0.06246   0.09584   0.00000  Uiso   1.00
O53    O     0.54163   0.02823   0.10016   0.00000  Uiso   1.00
C54    C     0.48296   0.01359   0.88190   0.00000  Uiso   1.00
O55    O     0.50224   0.00251   0.90985   0.00000  Uiso   1.00
O56    O     0.45456   0.00904   0.02723   0.00000  Uiso   1.00
O57    O     0.47491   0.97481   0.02469   0.00000  Uiso   1.00
O58    O     0.51906   0.98463   0.92895   0.00000  Uiso   1.00
O59    O     0.54462   0.98066   1.01271   0.00000  Uiso   1.00
C60    C     0.57047   0.59415   0.27747   0.00000  Uiso   1.00
C61    C     0.60186   0.62167   0.29513   0.00000  Uiso   1.00
C62    C     0.62388   0.63528   0.25524   0.00000  Uiso   1.00
C63    C     0.61470   0.62171   0.19730   0.00000  Uiso   1.00
C64    C     0.58308   0.59453   0.17831   0.00000  Uiso   1.00
C65    C     0.56098   0.58089   0.21875   0.00000  Uiso   1.00
C66    C     0.54759   0.57916   0.32164   0.00000  Uiso   1.00
H67    H     0.60942   0.63232   0.34010   0.00000  Uiso   1.00
H68    H     0.64821   0.65629   0.26936   0.00000  Uiso   1.00
H69    H     0.63235   0.63258   0.16730   0.00000  Uiso   1.00
H70    H     0.53670   0.55974   0.20493   0.00000  Uiso   1.00
H71    H     0.54026   0.59710   0.33519   0.00000  Uiso   1.00
H72    H     0.52418   0.55715   0.30149   0.00000  Uiso   1.00
C73    C     0.54709   0.51030   0.72827   0.00000  Uiso   1.00
C74    C     0.55355   0.52481   0.78488   0.00000  Uiso   1.00
C75    C     0.57010   0.52706   0.68494   0.00000  Uiso   1.00
C76    C     0.57115   0.54600   0.58555   0.00000  Uiso   1.00
C77    C     0.54831   0.54666   0.52815   0.00000  Uiso   1.00
C78    C     0.51892   0.47983   0.71241   0.00000  Uiso   1.00
C79    C     0.49736   0.46426   0.75247   0.00000  Uiso   1.00
C80    C     0.53204   0.50925   0.82549   0.00000  Uiso   1.00
H81    H     0.51372   0.46817   0.66903   0.00000  Uiso   1.00
H82    H     0.47569   0.44074   0.73998   0.00000  Uiso   1.00
H83    H     0.48697   0.46622   0.83937   0.00000  Uiso   1.00
H84    H     0.57527   0.54831   0.79716   0.00000  Uiso   1.00
H85    H     0.58080   0.51140   0.67379   0.00000  Uiso   1.00
C86    C     0.54553   0.55917   0.42005   0.00000  Uiso   1.00
C87    C     0.56793   0.55777   0.47739   0.00000  Uiso   1.00
H88    H     0.59139   0.57099   0.60007   0.00000  Uiso   1.00
H89    H     0.52682   0.52200   0.51610   0.00000  Uiso   1.00
H90    H     0.53813   0.56342   0.53529   0.00000  Uiso   1.00
H91    H     0.58297   0.53080   0.57727   0.00000  Uiso   1.00
H92    H     0.59142   0.55058   0.70479   0.00000  Uiso   1.00
H93    H     0.52413   0.53464   0.40640   0.00000  Uiso   1.00
H94    H     0.53551   0.57589   0.42847   0.00000  Uiso   1.00
N95    N     0.56573   0.57071   0.37344   0.00000  Uiso   1.00
N96    N     0.55058   0.53255   0.63140   0.00000  Uiso   1.00
C97    C     0.50375   0.47889   0.80871   0.00000  Uiso   1.00
C98    C     0.05213   0.56145   0.76873   0.00000  Uiso   1.00
C99    C     0.03077   0.57573   0.75350   0.00000  Uiso   1.00
C100   C     0.01076   0.57588   0.79279   0.00000  Uiso   1.00
C101   C     0.01206   0.56204   0.84774   0.00000  Uiso   1.00
C102   C     0.03381   0.54837   0.86393   0.00000  Uiso   1.00
C103   C     0.05390   0.54815   0.82457   0.00000  Uiso   1.00
C104   C     0.07200   0.55982   0.72459   0.00000  Uiso   1.00
H105   H     0.02936   0.58638   0.71087   0.00000  Uiso   1.00
H106   H    -0.00588   0.58665   0.78054   0.00000  Uiso   1.00
H107   H    -0.00350   0.56235   0.87795   0.00000  Uiso   1.00
H108   H     0.07063   0.53749   0.83729   0.00000  Uiso   1.00
H109   H     0.08924   0.58487   0.71429   0.00000  Uiso   1.00
H110   H     0.08759   0.54786   0.74329   0.00000  Uiso   1.00
C111   C     0.02809   0.48211   0.31048   0.00000  Uiso   1.00
C112   C     0.03719   0.49551   0.25664   0.00000  Uiso   1.00
C113   C     0.02026   0.49978   0.35361   0.00000  Uiso   1.00
C114   C     0.03045   0.51495   0.45742   0.00000  Uiso   1.00
C115   C     0.05580   0.52307   0.51610   0.00000  Uiso   1.00
C116   C     0.02366   0.45084   0.32159   0.00000  Uiso   1.00
C117   C     0.02733   0.43290   0.27881   0.00000  Uiso   1.00
C118   C     0.03989   0.47723   0.21281   0.00000  Uiso   1.00
H119   H     0.01652   0.44010   0.36276   0.00000  Uiso   1.00
H120   H     0.02347   0.40865   0.28745   0.00000  Uiso   1.00
H121   H     0.03618   0.43114   0.19050   0.00000  Uiso   1.00
H122   H     0.04000   0.51936   0.24726   0.00000  Uiso   1.00
H123   H     0.99331   0.48472   0.35789   0.00000  Uiso   1.00
C124   C     0.06603   0.54015   0.62479   0.00000  Uiso   1.00
C125   C     0.04072   0.52844   0.56614   0.00000  Uiso   1.00
H126   H     1.02713   0.53655   0.44438   0.00000  Uiso   1.00
H127   H     0.06173   0.50276   0.52658   0.00000  Uiso   1.00
H128   H     0.07946   0.54526   0.51178   0.00000  Uiso   1.00
H129   H     0.00559   0.49472   0.46328   0.00000  Uiso   1.00
H130   H     1.02325   0.52337   0.33668   0.00000  Uiso   1.00
H131   H     0.07643   0.52303   0.63720   0.00000  Uiso   1.00
H132   H     0.08694   0.56442   0.61926   0.00000  Uiso   1.00
N133   N     0.04827   0.54168   0.67055   0.00000  Uiso   1.00
N134   N     0.04301   0.50541   0.41131   0.00000  Uiso   1.00
C135   C     0.03485   0.44581   0.22418   0.00000  Uiso   1.00
C136   C     0.55365   0.07225   0.29021   0.00000  Uiso   1.00
C137   C     0.58797   0.07993   0.30689   0.00000  Uiso   1.00
C138   C     0.60543   0.07747   0.26492   0.00000  Uiso   1.00
C139   C     0.58885   0.06735   0.20594   0.00000  Uiso   1.00
C140   C     0.55481   0.06036   0.18794   0.00000  Uiso   1.00
C141   C     0.53731   0.06308   0.23016   0.00000  Uiso   1.00
C142   C     0.53499   0.07396   0.33674   0.00000  Uiso   1.00
H143   H     0.60112   0.08754   0.35260   0.00000  Uiso   1.00
H144   H     0.63185   0.08329   0.27820   0.00000  Uiso   1.00
H145   H     0.60277   0.06543   0.17406   0.00000  Uiso   1.00
H146   H     0.51094   0.05737   0.21661   0.00000  Uiso   1.00
H147   H     0.54718   0.09941   0.35479   0.00000  Uiso   1.00
H148   H     0.50802   0.06657   0.31675   0.00000  Uiso   1.00
C149   C     0.47339   0.99289   0.71880   0.00000  Uiso   1.00
C150   C     0.48752   0.00178   0.77952   0.00000  Uiso   1.00
C151   C     0.49454   0.99274   0.67564   0.00000  Uiso   1.00
C152   C     0.51371   0.01566   0.58469   0.00000  Uiso   1.00
C153   C     0.50766   0.03529   0.53334   0.00000  Uiso   1.00
C154   C     0.43929   0.98512   0.69793   0.00000  Uiso   1.00
C155   C     0.42008   0.98768   0.73643   0.00000  Uiso   1.00
C156   C     0.46820   0.00428   0.81836   0.00000  Uiso   1.00
H157   H     0.42782   0.97771   0.65149   0.00000  Uiso   1.00
H158   H     0.39390   0.98194   0.71990   0.00000  Uiso   1.00
H159   H     0.41938  -0.00036   0.82551   0.00000  Uiso   1.00
H160   H     0.51368   0.00742   0.79627   0.00000  Uiso   1.00
H161   H     0.48296   0.96795   0.65461   0.00000  Uiso   1.00
C162   C     0.52037   0.05514   0.43212   0.00000  Uiso   1.00
C163   C     0.52618   0.03563   0.48386   0.00000  Uiso   1.00
H164   H     0.54125   0.02662   0.60409   0.00000  Uiso   1.00
H165   H     0.48001   0.02433   0.51493   0.00000  Uiso   1.00
H166   H     0.51669   0.06046   0.55034   0.00000  Uiso   1.00
H167   H     0.50466   0.99052   0.56736   0.00000  Uiso   1.00
H168   H     0.52086   0.99943   0.69902   0.00000  Uiso   1.00
H169   H     0.49269   0.04527   0.41488   0.00000  Uiso   1.00
H170   H     0.53128   0.08076   0.44851   0.00000  Uiso   1.00
N171   N     0.53682   0.05280   0.38468   0.00000  Uiso   1.00
N172   N     0.49515   0.01586   0.63035   0.00000  Uiso   1.00
C173   C     0.43458  -0.00231   0.79625   0.00000  Uiso   1.00
C174   C     0.37223   0.48235   1.00094   0.00000  Uiso   1.00
C175   C     0.35976   0.49625   0.95369   0.00000  Uiso   1.00
C176   C     0.38187   0.51984   0.92159   0.00000  Uiso   1.00
C177   C     0.41659   0.52976   0.93605   0.00000  Uiso   1.00
C178   C     0.42945   0.51548   0.98182   0.00000  Uiso   1.00
C179   C     0.40708   0.49156   1.01392   0.00000  Uiso   1.00
C180   C     0.34846   0.45783   1.03712   0.00000  Uiso   1.00
H181   H     0.33298   0.48904   0.94154   0.00000  Uiso   1.00
H182   H     0.37201   0.53030   0.88513   0.00000  Uiso   1.00
H183   H     0.43323   0.54782   0.91009   0.00000  Uiso   1.00
H184   H     0.41678   0.48018   1.04897   0.00000  Uiso   1.00
H185   H     0.32986   0.43595   1.00812   0.00000  Uiso   1.00
H186   H     0.36264   0.44962   1.07255   0.00000  Uiso   1.00
C187   C     0.16655   0.49701  -0.02299   0.00000  Uiso   1.00
C188   C     0.14398   0.50557  -0.00424   0.00000  Uiso   1.00
C189   C     0.20163   0.52358  -0.02625   0.00000  Uiso   1.00
C190   C     0.24480   0.50779   1.01491   0.00000  Uiso   1.00
C191   C     0.25772   0.48468   1.00061   0.00000  Uiso   1.00
C192   C     0.15509   0.46457  -0.04107   0.00000  Uiso   1.00
C193   C     0.12167   0.44141  -0.04027   0.00000  Uiso   1.00
C194   C     0.11038   0.48239  -0.00343   0.00000  Uiso   1.00
H195   H     0.17155   0.45706  -0.05684   0.00000  Uiso   1.00
H196   H     0.11290   0.41662  -0.05484   0.00000  Uiso   1.00
H197   H     0.07346   0.43190  -0.02174   0.00000  Uiso   1.00
H198   H     0.15255   0.53064   1.00850   0.00000  Uiso   1.00
H199   H     0.21288   0.53926   0.01567   0.00000  Uiso   1.00
C200   C     0.29630   0.46030   1.03925   0.00000  Uiso   1.00
C201   C     0.28528   0.48533   1.05122   0.00000  Uiso   1.00
H202   H     0.26650   0.53198   1.03026   0.00000  Uiso   1.00
H203   H     0.23612   0.45982  -0.00719   0.00000  Uiso   1.00
H204   H     0.26851   0.49190   0.95940   0.00000  Uiso   1.00
H205   H     0.22991   0.49799   0.05103   0.00000  Uiso   1.00
H206   H     0.19911   0.53907   0.93721   0.00000  Uiso   1.00
H207   H     0.28079   0.43750   1.05942   0.00000  Uiso   1.00
H208   H     0.29174   0.45525   0.99034   0.00000  Uiso   1.00
N209   N     0.33218   0.47246   1.06626   0.00000  Uiso   1.00
N210   N     0.22379   0.51092  -0.03938   0.00000  Uiso   1.00
C211   C     0.09933   0.45019  -0.02163   0.00000  Uiso   1.00
C212   C     0.88110   0.36428   0.07177   0.00000  Uiso   1.00
C213   C     0.90165   0.35218   0.10508   0.00000  Uiso   1.00
C214   C     0.93618   0.36657   0.10405   0.00000  Uiso   1.00
C215   C     0.95057   0.39318   1.06997   0.00000  Uiso   1.00
C216   C     0.93068   0.40632   1.03780   0.00000  Uiso   1.00
C217   C     0.89584   0.39182   1.03911   0.00000  Uiso   1.00
C218   C     0.84354   0.34676   0.06990   0.00000  Uiso   1.00
H219   H     0.89074   0.33122   0.13105   0.00000  Uiso   1.00
H220   H     0.95178   0.35687   0.12927   0.00000  Uiso   1.00
H221   H     0.97738   0.40372   1.06937   0.00000  Uiso   1.00
H222   H     0.88015   0.40146   1.01384   0.00000  Uiso   1.00
H223   H     0.83919   0.34629   0.11629   0.00000  Uiso   1.00
H224   H     0.83060   0.35930   0.04272   0.00000  Uiso   1.00
C225   C     0.66262   0.13876   0.97483   0.00000  Uiso   1.00
C226   C     0.63332   0.11216  -0.01245   0.00000  Uiso   1.00
C227   C     0.69729   0.14516   1.00732   0.00000  Uiso   1.00
C228   C     0.74425   0.19976   1.02556   0.00000  Uiso   1.00
C229   C     0.75461   0.23281   1.05400   0.00000  Uiso   1.00
C230   C     0.65934   0.16007   0.93239   0.00000  Uiso   1.00
C231   C     0.62728   0.15561   0.90476   0.00000  Uiso   1.00
C232   C     0.60100   0.10768  -0.04004   0.00000  Uiso   1.00
H233   H     0.68161   0.18043   0.92137   0.00000  Uiso   1.00
H234   H     0.62494   0.17232   0.87254   0.00000  Uiso   1.00
H235   H     0.57359   0.12705   0.89763   0.00000  Uiso   1.00
H236   H     0.63563   0.09557   0.02019   0.00000  Uiso   1.00
H237   H     0.71245   0.14517   0.97430   0.00000  Uiso   1.00
C238   C     0.79744   0.29211   0.05938   0.00000  Uiso   1.00
C239   C     0.78635   0.25839   1.03366   0.00000  Uiso   1.00
H240   H     0.76470   0.19290   0.04052   0.00000  Uiso   1.00
H241   H     0.73362   0.23905   1.04049   0.00000  Uiso   1.00
H242   H     0.75979   0.23200   0.10336   0.00000  Uiso   1.00
H243   H     0.74035   0.20126   0.97624   0.00000  Uiso   1.00
H244   H     0.69555   0.12558   1.03767   0.00000  Uiso   1.00
H245   H     0.77818   0.29995   1.04043   0.00000  Uiso   1.00
H246   H     0.80003   0.29154   0.10870   0.00000  Uiso   1.00
N247   N     0.83004   0.31405   0.04360   0.00000  Uiso   1.00
N248   N     0.71301   0.17566   1.04349   0.00000  Uiso   1.00
C249   C     0.59824   0.12987   0.91907   0.00000  Uiso   1.00
C250   C     0.93389   0.56612   0.05384   0.00000  Uiso   1.00
C251   C     0.93924   0.57671   0.11333   0.00000  Uiso   1.00
C252   C     0.96349   0.57360   0.15674   0.00000  Uiso   1.00
C253   C     0.98278   0.56020   0.14105   0.00000  Uiso   1.00
C254   C     0.97713   0.54883   0.08214   0.00000  Uiso   1.00
C255   C     0.95243   0.55145   0.03872   0.00000  Uiso   1.00
C256   C     0.91100   0.57334   0.00625   0.00000  Uiso   1.00
H257   H     0.92538   0.58828   0.12568   0.00000  Uiso   1.00
H258   H     0.96792   0.58225   0.20232   0.00000  Uiso   1.00
H259   H     0.00213   0.55867   0.17479   0.00000  Uiso   1.00
H260   H     0.94881   0.54346   0.99292   0.00000  Uiso   1.00
H261   H     0.92026   0.59991   0.00877   0.00000  Uiso   1.00
H262   H     0.91233   0.56645  -0.03878   0.00000  Uiso   1.00
C263   C     0.68696   0.55970   0.89331   0.00000  Uiso   1.00
C264   C     0.67264   0.57419   0.92322   0.00000  Uiso   1.00
C265   C     0.70572   0.54315   0.92739   0.00000  Uiso   1.00
C266   C     0.76040   0.54503   0.95485   0.00000  Uiso   1.00
C267   C     0.79697   0.56305   0.94597   0.00000  Uiso   1.00
C268   C     0.68315   0.56030   0.83102   0.00000  Uiso   1.00
C269   C     0.66518   0.57509   0.79906   0.00000  Uiso   1.00
C270   C     0.65453   0.58914   0.89135   0.00000  Uiso   1.00
H271   H     0.69377   0.54896   0.80722   0.00000  Uiso   1.00
H272   H     0.66206   0.57523   0.75098   0.00000  Uiso   1.00
H273   H     0.63675   0.60041   0.80308   0.00000  Uiso   1.00
H274   H     0.67546   0.57362   0.97128   0.00000  Uiso   1.00
H275   H     0.69358   0.51765   0.90967   0.00000  Uiso   1.00
C276   C     0.85555   0.56881  -0.02248   0.00000  Uiso   1.00
C277   C     0.81856   0.54938  -0.01664   0.00000  Uiso   1.00
H278   H     0.75993   0.54661   0.00310   0.00000  Uiso   1.00
H279   H     0.79761   0.56087   0.89804   0.00000  Uiso   1.00
H280   H     0.80750   0.58902   0.95940   0.00000  Uiso   1.00
H281   H     0.74934   0.51923   0.93945   0.00000  Uiso   1.00
H282   H     0.70440   0.54312   0.97550   0.00000  Uiso   1.00
H283   H     0.85742   0.56739   0.92998   0.00000  Uiso   1.00
H284   H     0.86478   0.59441  -0.00779   0.00000  Uiso   1.00
N285   N     0.87589   0.55590   0.01504   0.00000  Uiso   1.00
N286   N     0.74111   0.55989   0.92041   0.00000  Uiso   1.00
C287   C     0.65098   0.58949   0.82893   0.00000  Uiso   1.00
C288   C     0.37482   0.89812   1.03324   0.00000  Uiso   1.00
C289   C     0.35320   0.90718   1.05483   0.00000  Uiso   1.00
C290   C     0.36428  -0.06072   1.07209   0.00000  Uiso   1.00
C291   C     0.39655  -0.03710   1.06630   0.00000  Uiso   1.00
C292   C     0.41840   0.95464   0.04350   0.00000  Uiso   1.00
C293   C     0.40757   0.92205   1.02794   0.00000  Uiso   1.00
C294   C     0.36233   0.86362   1.01197   0.00000  Uiso   1.00
H295   H     0.32779   0.88959   1.05884   0.00000  Uiso   1.00
H296   H     0.34754  -0.05402   1.08905   0.00000  Uiso   1.00
H297   H     0.40425  -0.01222   0.07897   0.00000  Uiso   1.00
H298   H     0.42395   0.91550   0.00926   0.00000  Uiso   1.00
H299   H     0.34625   0.85911   0.96663   0.00000  Uiso   1.00
H300   H     0.38415   0.85978   1.00739   0.00000  Uiso   1.00
C301   C     0.16869   0.68733   0.05803   0.00000  Uiso   1.00
C302   C     0.14872   0.65520   1.07132   0.00000  Uiso   1.00
C303   C     0.18025   0.71365   0.10600   0.00000  Uiso   1.00
C304   C     0.23529   0.75779   0.09854   0.00000  Uiso   1.00
C305   C     0.25248   0.78806   1.06491   0.00000  Uiso   1.00
C306   C     0.17564   0.69386   0.00003   0.00000  Uiso   1.00
C307   C     0.16232   0.66878  -0.04371   0.00000  Uiso   1.00
C308   C     0.13459   0.63011   1.02702   0.00000  Uiso   1.00
H309   H     0.19086   0.71822  -0.01215   0.00000  Uiso   1.00
H310   H     0.16745   0.67400  -0.08831   0.00000  Uiso   1.00
H311   H     0.13089   0.61811   0.93441   0.00000  Uiso   1.00
H312   H     0.14291   0.64998   1.11556   0.00000  Uiso   1.00
H313   H     0.19547   0.70935   0.14614   0.00000  Uiso   1.00
C314   C     0.30798   0.82269   1.03130   0.00000  Uiso   1.00
C315   C     0.29082   0.80080   1.07866   0.00000  Uiso   1.00
H316   H     0.24475   0.76353   0.14732   0.00000  Uiso   1.00
H317   H     0.24251   0.78202   1.01631   0.00000  Uiso   1.00
H318   H     0.24669   0.80707   1.07865   0.00000  Uiso   1.00
H319   H     0.24146   0.73906   0.08442   0.00000  Uiso   1.00
H320   H     0.15732   0.71193   0.11962   0.00000  Uiso   1.00
H321   H     0.30337   0.80741   0.99126   0.00000  Uiso   1.00
H322   H     0.29695   0.83928   1.01872   0.00000  Uiso   1.00
N323   N     0.34441   0.84109   1.05492   0.00000  Uiso   1.00
N324   N     0.19863   0.74615   1.08508   0.00000  Uiso   1.00
C325   C     0.14158   0.63711   0.96939   0.00000  Uiso   1.00
C326   C     0.56319   0.90728  -0.05483   0.00000  Uiso   1.00
C327   C     0.55477   0.90075  -0.11676   0.00000  Uiso   1.00
C328   C     0.54019   0.91703  -0.15379   0.00000  Uiso   1.00
C329   C     0.53371   0.93990   0.87060   0.00000  Uiso   1.00
C330   C     0.54227   0.94704   0.93246   0.00000  Uiso   1.00
C331   C     0.55712   0.93067   0.96952   0.00000  Uiso   1.00
C332   C     0.57830   0.88905  -0.01550   0.00000  Uiso   1.00
H333   H     0.55938   0.88291  -0.13628   0.00000  Uiso   1.00
H334   H     0.53386  -0.08813  -0.20155   0.00000  Uiso   1.00
H335   H     0.52224  -0.04787   0.84110   0.00000  Uiso   1.00
H336   H     0.56355   0.93581   1.01729   0.00000  Uiso   1.00
H337   H     0.59982   0.89002  -0.03353   0.00000  Uiso   1.00
H338   H     0.58823   0.90030   0.03058   0.00000  Uiso   1.00
C339   C     0.55436   0.68688   0.91756   0.00000  Uiso   1.00
C340   C     0.56167   0.66131   0.93435   0.00000  Uiso   1.00
C341   C     0.58222   0.72082   0.91597   0.00000  Uiso   1.00
C342   C     0.57929   0.76944   0.94000   0.00000  Uiso   1.00
C343   C     0.57771   0.78876  -0.00943   0.00000  Uiso   1.00
C344   C     0.52046   0.68062   0.90238   0.00000  Uiso   1.00
C345   C     0.49427   0.64951   0.90470   0.00000  Uiso   1.00
C346   C     0.53529   0.62982  -0.06316   0.00000  Uiso   1.00
H347   H     0.51434   0.69993   0.88911   0.00000  Uiso   1.00
H348   H     0.46818   0.64490   0.89315   0.00000  Uiso   1.00
H349   H     0.48078   0.60048  -0.07625   0.00000  Uiso   1.00
H350   H     0.58784   0.66609   0.94612   0.00000  Uiso   1.00
H351   H     0.57826   0.72959   0.87061   0.00000  Uiso   1.00
C352   C     0.56632   0.83483   0.01392   0.00000  Uiso   1.00
C353   C     0.56987   0.81573   0.96552   0.00000  Uiso   1.00
H354   H     0.60143   0.78513   0.91935   0.00000  Uiso   1.00
H355   H     0.55747   0.77227   0.01458   0.00000  Uiso   1.00
H356   H     0.60238   0.79939   0.02239   0.00000  Uiso   1.00
H357   H     0.55563   0.76126   0.90579   0.00000  Uiso   1.00
H358   H     0.60730   0.72128   0.92325   0.00000  Uiso   1.00
H359   H     0.54837   0.81779   0.04109   0.00000  Uiso   1.00
H360   H     0.59118   0.84878   0.04431   0.00000  Uiso   1.00
N361   N     0.55218   0.85557   0.98597   0.00000  Uiso   1.00
N362   N     0.58263   0.74133   0.96344   0.00000  Uiso   1.00
C363   C     0.50156   0.62428  -0.07807   0.00000  Uiso   1.00
C364   C     0.56268   0.42118   0.08183   0.00000  Uiso   1.00
C365   C     0.59628   0.42791   0.10464   0.00000  Uiso   1.00
C366   C     0.62253   0.45954   0.10790   0.00000  Uiso   1.00
C367   C     0.61547   0.48471   0.08859   0.00000  Uiso   1.00
C368   C     0.58194   0.47845   0.06644   0.00000  Uiso   1.00
C369   C     0.55563   0.44655   0.06317   0.00000  Uiso   1.00
C370   C     0.53472   0.38700   0.07711   0.00000  Uiso   1.00
H371   H     0.60213   0.40857   0.11911   0.00000  Uiso   1.00
H372   H     0.64837   0.46456   0.12581   0.00000  Uiso   1.00
H373   H     0.63611   0.50908   0.09162   0.00000  Uiso   1.00
H374   H     0.52970   0.44137   0.04548   0.00000  Uiso   1.00
H375   H     0.53590   0.37685   0.12182   0.00000  Uiso   1.00
H376   H     0.50946   0.38611   0.06370   0.00000  Uiso   1.00
C377   C     0.46770   0.17240   0.91358   0.00000  Uiso   1.00
C378   C     0.48276   0.15203   0.92336   0.00000  Uiso   1.00
C379   C     0.48846   0.20753   0.90377   0.00000  Uiso   1.00
C380   C     0.50892   0.26117   0.94686   0.00000  Uiso   1.00
C381   C     0.50829   0.27940   0.99999   0.00000  Uiso   1.00
C382   C     0.43330   0.16006   0.91615   0.00000  Uiso   1.00
C383   C     0.41440   0.12798   0.92951   0.00000  Uiso   1.00
C384   C     0.46394   0.11990   0.93748   0.00000  Uiso   1.00
H385   H     0.42129   0.17545   0.90852   0.00000  Uiso   1.00
H386   H     0.38790   0.11866   0.93157   0.00000  Uiso   1.00
H387   H     0.41473   0.08315   0.95077   0.00000  Uiso   1.00
H388   H     0.50937   0.16143   0.92199   0.00000  Uiso   1.00
H389   H     0.47608   0.21358   0.86199   0.00000  Uiso   1.00
C390   C     0.52106   0.33388   0.04105   0.00000  Uiso   1.00
C391   C     0.52373   0.31552   0.99056   0.00000  Uiso   1.00
H392   H     0.53567   0.26818   0.94441   0.00000  Uiso   1.00
H393   H     0.48161   0.27018   1.00555   0.00000  Uiso   1.00
H394   H     0.52296   0.27520   0.04103   0.00000  Uiso   1.00
H395   H     0.49656   0.26735   0.90508   0.00000  Uiso   1.00
H396   H     0.51441   0.21286   0.89905   0.00000  Uiso   1.00
H397   H     0.49388   0.32608   0.04089   0.00000  Uiso   1.00
H398   H     0.53294   0.32855   0.08426   0.00000  Uiso   1.00
N399   N     0.53897   0.36844   0.03238   0.00000  Uiso   1.00
N400   N     0.49050   0.22655   0.95493   0.00000  Uiso   1.00
C401   C     0.42970   0.10798   0.94062   0.00000  Uiso   1.00
loop_
_geom_bond_atom_site_label_1
_geom_bond_atom_site_label_2
_geom_bond_distance
_geom_bond_site_symmetry_2
_ccdc_geom_bond_type
C0     O8      1.218   .     D
C0     O9      1.391   .     S
C0     C270    1.478   .     S
Er1    O11     2.168   .     S
Er1    O13     2.178   .     S
Er1    O17     2.208   .     S
Er1    O15     2.170   1_554 S
Er1    O18     2.189   1_554 S
Er1    O19     2.198   1_554 S
Er2    O10     2.168   .     S
Er2    O12     2.160   .     S
Er2    O16     2.165   .     S
Er2    O4      2.169   1_554 S
Er2    O9      2.216   1_554 S
C3     O16     1.269   .     A
C3     O17     1.280   .     A
C3     C346    1.483   .     S
O4     C14     1.272   .     A
O4     Er2     2.169   1_556 S
C5     O12     1.273   .     A
C5     O13     1.276   .     A
C5     C64     1.477   .     S
C6     O10     1.269   .     A
C6     O11     1.267   .     A
C6     C368    1.474   .     S
C7     O18     1.260   .     A
C7     O19     1.275   .     A
C7     C178    1.473   .     S
O9     Er2     2.216   1_556 S
C14    O15     1.270   .     A
C14    C80     1.476   .     S
O15    Er1     2.170   1_556 S
O18    Er1     2.189   1_556 S
O19    Er1     2.198   1_556 S
C20    O28     1.219   .     D
C20    O29     1.391   .     S
C20    C216    1.476   .     S
Er21   O31     2.161   .     S
Er21   O33     2.181   .     S
Er21   O37     2.160   .     S
Er21   O35     2.214   1_554 S
Er21   O38     2.190   1_554 S
Er21   O39     2.202   1_554 S
Er22   O30     2.180   .     S
Er22   O24     2.157   1_654 S
Er22   O29     2.223   1_554 S
Er22   O32     2.162   1_655 S
Er22   O36     2.177   1_655 S
C23    O36     1.274   .     A
C23    O37     1.271   .     A
C23    C194    1.474   .     S
O24    C34     1.263   .     A
O24    Er22    2.157   1_456 S
C25    O32     1.267   .     A
C25    O33     1.271   .     A
C25    C118    1.470   .     S
C26    O30     1.275   .     A
C26    C254    1.463   .     S
C26    O31     1.271   1_655 A
C27    O38     1.271   .     A
C27    O39     1.265   .     A
C27    C308    1.473   .     S
O29    Er22    2.223   1_556 S
O31    C26     1.271   1_455 A
O32    Er22    2.162   1_455 S
C34    O35     1.281   .     A
C34    C102    1.461   .     S
O35    Er21    2.214   1_556 S
O36    Er22    2.177   1_455 S
O38    Er21    2.190   1_556 S
O39    Er21    2.202   1_556 S
C40    O48     1.217   .     D
C40    O49     1.394   .     S
C40    C384    1.469   .     S
Er41   O57     2.189   .     S
Er41   O51     2.176   1_565 S
Er41   O53     2.173   1_565 S
Er41   O55     2.198   1_564 S
Er41   O58     2.205   1_554 S
Er41   O59     2.191   1_554 S
Er42   O50     2.169   .     S
Er42   O52     2.175   .     S
Er42   O56     2.151   .     S
Er42   O44     2.171   1_554 S
Er42   O49     2.227   1_554 S
C43    O57     1.277   .     A
C43    C292    1.478   .     S
C43    O56     1.270   1_565 A
O44    C54     1.266   .     A
O44    Er42    2.171   1_556 S
C45    O52     1.270   .     A
C45    O53     1.269   .     A
C45    C140    1.474   .     S
C46    O50     1.272   .     A
C46    O51     1.275   .     A
C46    C232    1.473   .     S
C47    O58     1.272   .     A
C47    O59     1.261   .     A
C47    C330    1.478   .     S
O49    Er42    2.227   1_556 S
O51    Er41    2.176   1_545 S
O53    Er41    2.173   1_545 S
C54    O55     1.279   .     A
C54    C156    1.470   .     S
O55    Er41    2.198   1_546 S
O56    C43     1.270   1_545 A
O58    Er41    2.205   1_556 S
O59    Er41    2.191   1_556 S
C60    C61     1.403   .     A
C60    C65     1.405   .     A
C60    C66     1.501   .     S
C61    C62     1.394   .     A
C61    H67     1.083   .     S
C62    C63     1.395   .     A
C62    H68     1.082   .     S
C63    C64     1.406   .     A
C63    H69     1.082   .     S
C64    C65     1.406   .     A
C65    H70     1.083   .     S
C66    H71     1.112   .     S
C66    H72     1.112   .     S
C66    N95     1.464   .     S
C73    C74     1.402   .     A
C73    C75     1.501   .     S
C73    C78     1.404   .     A
C74    C80     1.405   .     A
C74    H84     1.082   .     S
C75    H85     1.112   .     S
C75    H92     1.113   .     S
C75    N96     1.461   .     S
C76    C77     1.523   .     S
C76    H88     1.113   .     S
C76    H91     1.114   .     S
C76    N96     1.462   .     S
C77    C87     1.524   .     S
C77    H89     1.112   .     S
C77    H90     1.112   .     S
C78    C79     1.396   .     A
C78    H81     1.083   .     S
C79    H82     1.083   .     S
C79    C97     1.397   .     A
C80    C97     1.405   .     A
H83    C97     1.082   .     S
C86    C87     1.522   .     S
C86    H93     1.112   .     S
C86    H94     1.113   .     S
C86    N95     1.460   .     S
C98    C99     1.405   .     A
C98    C103    1.404   .     A
C98    C104    1.502   .     S
C99    C100    1.397   .     A
C99    H105    1.083   .     S
C100   C101    1.396   .     A
C100   H106    1.082   .     S
C101   C102    1.401   .     A
C101   H107    1.083   .     S
C102   C103    1.401   .     A
C103   H108    1.084   .     S
C104   H109    1.112   .     S
C104   H110    1.113   .     S
C104   N133    1.463   .     S
C111   C112    1.404   .     A
C111   C113    1.503   .     S
C111   C116    1.403   .     A
C112   C118    1.403   .     A
C112   H122    1.082   .     S
C113   N134    1.463   .     S
C113   H123    1.114   1_455 S
C113   H130    1.113   1_455 S
C114   C115    1.524   .     S
C114   H129    1.114   .     S
C114   N134    1.463   .     S
C114   H126    1.114   1_455 S
C115   C125    1.524   .     S
C115   H127    1.112   .     S
C115   H128    1.112   .     S
C116   C117    1.397   .     A
C116   H119    1.082   .     S
C117   H120    1.083   .     S
C117   C135    1.397   .     A
C118   C135    1.403   .     A
H121   C135    1.081   .     S
H123   C113    1.114   1_655 S
C124   C125    1.521   .     S
C124   H131    1.112   .     S
C124   H132    1.112   .     S
C124   N133    1.460   .     S
H126   C114    1.114   1_655 S
H130   C113    1.113   1_655 S
C136   C137    1.405   .     A
C136   C141    1.410   .     A
C136   C142    1.506   .     S
C137   C138    1.395   .     A
C137   H143    1.083   .     S
C138   C139    1.395   .     A
C138   H144    1.083   .     S
C139   C140    1.404   .     A
C139   H145    1.083   .     S
C140   C141    1.406   .     A
C141   H146    1.083   .     S
C142   H147    1.112   .     S
C142   H148    1.113   .     S
C142   N171    1.467   .     S
C149   C151    1.504   .     S
C149   C154    1.405   .     A
C149   C150    1.405   1_565 A
C150   C156    1.404   .     A
C150   H160    1.084   .     S
C150   C149    1.405   1_545 A
C151   H161    1.112   .     S
C151   H168    1.113   .     S
C151   N172    1.464   1_565 S
C152   C153    1.527   .     S
C152   H164    1.113   .     S
C152   N172    1.463   .     S
C152   H167    1.113   1_545 S
C153   C163    1.528   .     S
C153   H165    1.112   .     S
C153   H166    1.112   .     S
C154   C155    1.396   .     A
C154   H157    1.083   .     S
C155   H158    1.082   .     S
C155   C173    1.396   1_565 A
C156   C173    1.403   .     A
H159   C173    1.083   .     S
C162   C163    1.527   .     S
C162   H169    1.112   .     S
C162   H170    1.113   .     S
C162   N171    1.463   .     S
H167   C152    1.113   1_565 S
N172   C151    1.464   1_545 S
C173   C155    1.396   1_545 A
C174   C175    1.405   .     A
C174   C179    1.407   .     A
C174   C180    1.509   .     S
C175   C176    1.396   .     A
C175   H181    1.082   .     S
C176   C177    1.395   .     A
C176   H182    1.082   .     S
C177   C178    1.403   .     A
C177   H183    1.083   .     S
C178   C179    1.408   .     A
C179   H184    1.084   .     S
C180   H185    1.114   .     S
C180   H186    1.110   .     S
C180   N209    1.469   .     S
C187   C188    1.401   .     A
C187   C189    1.511   .     S
C187   C192    1.409   .     A
C188   C194    1.405   .     A
C188   H198    1.084   1_554 S
C189   H199    1.114   .     S
C189   N210    1.465   .     S
C189   H206    1.111   1_554 S
C190   C191    1.524   .     S
C190   H202    1.113   .     S
C190   H205    1.114   1_556 S
C190   N210    1.465   1_556 S
C191   C201    1.528   .     S
C191   H204    1.112   .     S
C191   H203    1.112   1_556 S
C192   C193    1.399   .     A
C192   H195    1.083   .     S
C193   H196    1.081   .     S
C193   C211    1.397   .     A
C194   C211    1.403   .     A
H197   C211    1.085   .     S
H198   C188    1.084   1_556 S
C200   C201    1.527   .     S
C200   H207    1.110   .     S
C200   H208    1.113   .     S
C200   N209    1.466   .     S
H203   C191    1.112   1_554 S
H205   C190    1.114   1_554 S
H206   C189    1.111   1_556 S
N210   C190    1.465   1_554 S
C212   C213    1.404   .     A
C212   C218    1.503   .     S
C212   C217    1.407   1_554 A
C213   C214    1.394   .     A
C213   H219    1.084   .     S
C214   H220    1.082   .     S
C214   C215    1.395   1_554 A
C215   C216    1.405   .     A
C215   H221    1.083   .     S
C215   C214    1.395   1_556 A
C216   C217    1.408   .     A
C217   H222    1.084   .     S
C217   C212    1.407   1_556 A
C218   H223    1.113   .     S
C218   H224    1.112   .     S
C218   N247    1.465   .     S
C225   C227    1.504   .     S
C225   C230    1.404   .     A
C225   C226    1.407   1_556 A
C226   C232    1.405   .     A
C226   H236    1.084   .     S
C226   C225    1.407   1_554 A
C227   H237    1.114   .     S
C227   H244    1.111   .     S
C227   N248    1.468   .     S
C228   C229    1.526   .     S
C228   H243    1.113   .     S
C228   N248    1.465   .     S
C228   H240    1.113   1_556 S
C229   C239    1.526   .     S
C229   H241    1.112   .     S
C229   H242    1.112   1_556 S
C230   C231    1.396   .     A
C230   H233    1.083   .     S
C231   H234    1.083   .     S
C231   C249    1.396   .     A
C232   C249    1.405   1_554 A
H235   C249    1.084   .     S
C238   H246    1.112   .     S
C238   N247    1.461   .     S
C238   C239    1.523   1_554 S
C238   H245    1.112   1_554 S
C239   C238    1.523   1_556 S
H240   C228    1.113   1_554 S
H242   C229    1.112   1_554 S
H245   C238    1.112   1_556 S
C249   C232    1.405   1_556 A
C250   C251    1.405   .     A
C250   C255    1.405   .     A
C250   C256    1.502   .     S
C251   C252    1.397   .     A
C251   H257    1.082   .     S
C252   C253    1.395   .     A
C252   H258    1.082   .     S
C253   C254    1.401   .     A
C253   H259    1.084   1_655 S
C254   C255    1.401   .     A
C255   H260    1.083   1_554 S
C256   H261    1.114   .     S
C256   H262    1.112   .     S
C256   N285    1.465   .     S
H259   C253    1.084   1_455 S
H260   C255    1.083   1_556 S
C263   C264    1.404   .     A
C263   C265    1.503   .     S
C263   C268    1.403   .     A
C264   C270    1.405   .     A
C264   H274    1.083   .     S
C265   H275    1.112   .     S
C265   H282    1.113   .     S
C265   N286    1.462   .     S
C266   C267    1.524   .     S
C266   H281    1.114   .     S
C266   N286    1.464   .     S
C266   H278    1.114   1_556 S
C267   H279    1.112   .     S
C267   H280    1.112   .     S
C267   C277    1.528   1_556 S
C268   C269    1.396   .     A
C268   H271    1.083   .     S
C269   H272    1.082   .     S
C269   C287    1.396   .     A
C270   C287    1.407   .     A
H273   C287    1.083   .     S
C276   C277    1.523   .     S
C276   H284    1.113   .     S
C276   N285    1.463   .     S
C276   H283    1.113   1_554 S
C277   C267    1.528   1_554 S
H278   C266    1.114   1_554 S
H283   C276    1.113   1_556 S
C288   C289    1.407   .     A
C288   C293    1.410   .     A
C288   C294    1.509   .     S
C289   H295    1.080   .     S
C289   C290    1.393   1_565 A
C290   C291    1.393   .     A
C290   H296    1.083   .     S
C290   C289    1.393   1_545 A
C291   C292    1.407   1_546 A
C291   H297    1.084   1_556 S
C292   C291    1.407   1_564 A
C292   C293    1.407   1_554 A
C293   C292    1.407   1_556 A
C293   H298    1.084   1_556 S
C294   H299    1.115   .     S
C294   H300    1.112   .     S
C294   N323    1.469   .     S
H297   C291    1.084   1_554 S
H298   C293    1.084   1_554 S
C301   C303    1.513   .     S
C301   C306    1.410   .     A
C301   C302    1.406   1_554 A
C302   C308    1.402   .     A
C302   H312    1.084   .     S
C302   C301    1.406   1_556 A
C303   H313    1.113   .     S
C303   H320    1.110   .     S
C303   N324    1.467   1_554 S
C304   H316    1.112   .     S
C304   H319    1.114   .     S
C304   C305    1.523   1_554 S
C304   N324    1.464   1_554 S
C305   C315    1.527   .     S
C305   H317    1.112   .     S
C305   H318    1.112   .     S
C305   C304    1.523   1_556 S
C306   C307    1.396   .     A
C306   H309    1.082   .     S
C307   H310    1.082   .     S
C307   C325    1.396   1_554 A
C308   C325    1.404   .     A
H311   C325    1.084   .     S
C314   C315    1.522   .     S
C314   H321    1.111   .     S
C314   H322    1.111   .     S
C314   N323    1.465   .     S
N324   C303    1.467   1_556 S
N324   C304    1.464   1_556 S
C325   C307    1.396   1_556 A
C326   C327    1.402   .     A
C326   C332    1.506   .     S
C326   C331    1.407   1_554 A
C327   C328    1.397   .     A
C327   H333    1.083   .     S
C328   C329    1.398   1_554 A
C328   H334    1.083   1_565 S
C329   C330    1.405   .     A
C329   C328    1.398   1_556 A
C329   H335    1.083   1_565 S
C330   C331    1.408   .     A
C331   H336    1.083   .     S
C331   C326    1.407   1_556 A
C332   H337    1.113   .     S
C332   H338    1.112   .     S
C332   N361    1.465   1_554 S
H334   C328    1.083   1_545 S
H335   C329    1.083   1_545 S
C339   C340    1.409   .     A
C339   C341    1.506   .     S
C339   C344    1.402   .     A
C340   H350    1.083   .     S
C340   C346    1.410   1_556 A
C341   H351    1.115   .     S
C341   H358    1.111   .     S
C341   N362    1.470   .     S
C342   H354    1.112   .     S
C342   H357    1.113   .     S
C342   N362    1.466   .     S
C342   C343    1.529   1_556 S
C343   H355    1.112   .     S
C343   H356    1.112   .     S
C343   C342    1.529   1_554 S
C343   C353    1.531   1_554 S
C344   C345    1.394   .     A
C344   H347    1.083   .     S
C345   H348    1.082   .     S
C345   C363    1.395   1_556 A
C346   C363    1.405   .     A
C346   C340    1.410   1_554 A
H349   C363    1.080   .     S
C352   H359    1.110   .     S
C352   H360    1.113   .     S
C352   C353    1.528   1_554 S
C352   N361    1.466   1_554 S
C353   C343    1.531   1_556 S
C353   C352    1.528   1_556 S
N361   C332    1.465   1_556 S
N361   C352    1.466   1_556 S
C363   C345    1.395   1_554 A
C364   C365    1.403   .     A
C364   C369    1.402   .     A
C364   C370    1.502   .     S
C365   C366    1.397   .     A
C365   H371    1.083   .     S
C366   C367    1.397   .     A
C366   H372    1.083   .     S
C367   C368    1.404   .     A
C367   H373    1.082   .     S
C368   C369    1.407   .     A
C369   H374    1.083   .     S
C370   H375    1.114   .     S
C370   H376    1.113   .     S
C370   N399    1.464   .     S
C377   C378    1.403   .     A
C377   C379    1.501   .     S
C377   C382    1.404   .     A
C378   C384    1.403   .     A
C378   H388    1.084   .     S
C379   H389    1.112   .     S
C379   H396    1.113   .     S
C379   N400    1.462   .     S
C380   C381    1.525   .     S
C380   H392    1.114   .     S
C380   H395    1.114   .     S
C380   N400    1.461   .     S
C381   C391    1.525   .     S
C381   H393    1.113   .     S
C381   H394    1.113   1_556 S
C382   C383    1.397   .     A
C382   H385    1.083   .     S
C383   H386    1.083   .     S
C383   C401    1.397   .     A
C384   C401    1.403   .     A
H387   C401    1.082   .     S
C390   H397    1.113   .     S
C390   H398    1.112   .     S
C390   N399    1.460   .     S
C390   C391    1.523   1_554 S
C391   C390    1.523   1_556 S
H394   C381    1.113   1_554 S
