data_kag+N123+E229
_audit_creation_date              2025-01-21
_audit_creation_method            'Materials Studio'
_symmetry_space_group_name_H-M    'P1'
_symmetry_Int_Tables_number       1
_symmetry_cell_setting            triclinic
loop_
_symmetry_equiv_pos_as_xyz
  x,y,z
_cell_length_a                    51.9654
_cell_length_b                    45.6370
_cell_length_c                    22.0389
_cell_angle_alpha                 91.4051
_cell_angle_beta                  87.8398
_cell_angle_gamma                 123.1590
loop_
_atom_site_label
_atom_site_type_symbol
_atom_site_fract_x
_atom_site_fract_y
_atom_site_fract_z
_atom_site_U_iso_or_equiv
_atom_site_adp_type
_atom_site_occupancy
Ce0    Ce    0.52887   0.49591  -0.00143   0.00000  Uiso   1.00
Ce1    Ce    0.47097   0.50380   0.98907   0.00000  Uiso   1.00
C2     C     0.47919   0.48146   0.09760   0.00000  Uiso   1.00
C3     C     0.57813   0.49016  -0.00843   0.00000  Uiso   1.00
C4     C     0.53403   0.56570   1.05807   0.00000  Uiso   1.00
C5     C     0.51822   0.51355   0.88793   0.00000  Uiso   1.00
C6     C     0.42160   0.50880   1.01189   0.00000  Uiso   1.00
C7     C     0.46602   0.43225  -0.06557   0.00000  Uiso   1.00
O8     O     0.47487   0.50464   0.09418   0.00000  Uiso   1.00
O9     O     0.48148   0.46969   0.04192   0.00000  Uiso   1.00
O10    O     0.55556   0.47223   0.02885   0.00000  Uiso   1.00
O11    O     0.57621   0.51190   0.96022   0.00000  Uiso   1.00
O12    O     0.54714   0.54836   1.05010   0.00000  Uiso   1.00
O13    O     0.50628   0.55451   1.04130   0.00000  Uiso   1.00
O14    O     0.52207   0.49003   0.89396   0.00000  Uiso   1.00
O15    O     0.51773   0.52818   0.94211   0.00000  Uiso   1.00
O16    O     0.44149   0.52625   0.96991   0.00000  Uiso   1.00
O17    O     0.42535   0.48689   0.03736   0.00000  Uiso   1.00
O18    O     0.45196   0.44851  -0.05484   0.00000  Uiso   1.00
O19    O     0.49487   0.44551  -0.05462   0.00000  Uiso   1.00
Ce20   Ce    0.03041   0.47932   0.00849   0.00000  Uiso   1.00
Ce21   Ce    0.97955   0.50277   0.03489   0.00000  Uiso   1.00
C22    C     0.99976   0.50307   0.91371   0.00000  Uiso   1.00
C23    C     0.07506   0.48601   0.92761   0.00000  Uiso   1.00
C24    C     0.95105   0.42290  -0.00060   0.00000  Uiso   1.00
C25    C     0.01933   0.49181   0.12957   0.00000  Uiso   1.00
C26    C     0.94013   0.52383   0.04750   0.00000  Uiso   1.00
C27    C     0.04734   0.56569   1.02685   0.00000  Uiso   1.00
O28    O     0.97408   0.49402   0.92944   0.00000  Uiso   1.00
O29    O     1.01765   0.51301   0.96283   0.00000  Uiso   1.00
O30    O     0.04742   0.47237   0.91385   0.00000  Uiso   1.00
O31    O     0.08063   0.49960  -0.02029   0.00000  Uiso   1.00
O32    O     0.97913   0.43073  -0.00387   0.00000  Uiso   1.00
O33    O     0.94416   0.44540   0.01297   0.00000  Uiso   1.00
O34    O     0.04376   0.50077   0.10657   0.00000  Uiso   1.00
O35    O    -0.00284   0.47464   0.08743   0.00000  Uiso   1.00
O36    O     0.94336   0.50728   0.08907   0.00000  Uiso   1.00
O37    O     0.95561   0.52797   0.99882   0.00000  Uiso   1.00
O38    O     0.02138   0.55728   1.05109   0.00000  Uiso   1.00
O39    O     0.05166   0.54196   0.00307   0.00000  Uiso   1.00
Ce40   Ce    0.50280   0.97024   0.99281   0.00000  Uiso   1.00
Ce41   Ce    0.47516   0.02522  -0.01339   0.00000  Uiso   1.00
C42    C     0.48640   0.01079   0.10340   0.00000  Uiso   1.00
C43    C     0.51078   0.91779   0.96898   0.00000  Uiso   1.00
C44    C     0.55162   0.03993   1.00804   0.00000  Uiso   1.00
C45    C     0.50738   1.00140   0.88059   0.00000  Uiso   1.00
C46    C     0.50742   0.09443   0.02035   0.00000  Uiso   1.00
C47    C     0.43477   0.93504  -0.00471   0.00000  Uiso   1.00
O48    O     0.49210   0.03882   0.08634   0.00000  Uiso   1.00
O49    O     0.47463  -0.01316   0.05650   0.00000  Uiso   1.00
O50    O     0.50048   0.92086   0.02037   0.00000  Uiso   1.00
O51    O     0.52109   0.94373   0.93377   0.00000  Uiso   1.00
O52    O     0.55210   0.01274   1.01637   0.00000  Uiso   1.00
O53    O     0.52461   0.03439   0.00063   0.00000  Uiso   1.00
O54    O     0.50410   0.97340   0.88722   0.00000  Uiso   1.00
O55    O     0.51026   1.01721   0.93609   0.00000  Uiso   1.00
O56    O     0.50177   0.08466   0.96531   0.00000  Uiso   1.00
O57    O     0.49709   0.06941   0.05731   0.00000  Uiso   1.00
O58    O     0.44119   0.96514   0.01551   0.00000  Uiso   1.00
O59    O     0.45431   0.93243   0.96411   0.00000  Uiso   1.00
C60    C     0.49549   0.46950   0.25597   0.00000  Uiso   1.00
C61    C     0.47506   0.43315   0.26331   0.00000  Uiso   1.00
C62    C     0.45583   0.41287   0.21629   0.00000  Uiso   1.00
C63    C     0.45742   0.42866   0.16153   0.00000  Uiso   1.00
C64    C     0.47788   0.46493   0.15426   0.00000  Uiso   1.00
C65    C     0.49637   0.48532   0.20177   0.00000  Uiso   1.00
C66    C     0.51552   0.49137   0.30649   0.00000  Uiso   1.00
H67    H     0.47376   0.42061   0.30553   0.00000  Uiso   1.00
H68    H     0.43971   0.38498   0.22234   0.00000  Uiso   1.00
H69    H     0.44220   0.41284   0.12546   0.00000  Uiso   1.00
H70    H     0.51160   0.51340   0.19625   0.00000  Uiso   1.00
H71    H     0.52928   0.48064   0.31974   0.00000  Uiso   1.00
H72    H     0.53187   0.51894   0.29207   0.00000  Uiso   1.00
C73    C     0.49861   0.52267   0.72986   0.00000  Uiso   1.00
C74    C     0.49762   0.50777   0.78547   0.00000  Uiso   1.00
C75    C     0.47595   0.50129   0.68220   0.00000  Uiso   1.00
C76    C     0.48010   0.49530   0.57413   0.00000  Uiso   1.00
C77    C     0.49931   0.49158   0.52516   0.00000  Uiso   1.00
C78    C     0.52171   0.55782   0.71796   0.00000  Uiso   1.00
C79    C     0.54327   0.57811   0.76170   0.00000  Uiso   1.00
C80    C     0.51893   0.52831   0.82956   0.00000  Uiso   1.00
H81    H     0.52305   0.56942   0.67470   0.00000  Uiso   1.00
H82    H     0.56116   0.60513   0.75219   0.00000  Uiso   1.00
H83    H     0.55869   0.57944   0.85124   0.00000  Uiso   1.00
H84    H     0.48032   0.48049   0.79463   0.00000  Uiso   1.00
H85    H     0.46555   0.51567   0.66736   0.00000  Uiso   1.00
C86    C     0.50855   0.49192   0.41405   0.00000  Uiso   1.00
C87    C     0.48816   0.49287   0.46350   0.00000  Uiso   1.00
H88    H     0.45570   0.47303   0.57160   0.00000  Uiso   1.00
H89    H     0.52379   0.51337   0.52921   0.00000  Uiso   1.00
H90    H     0.49731   0.46626   0.53034   0.00000  Uiso   1.00
H91    H     0.48179   0.52039   0.56730   0.00000  Uiso   1.00
H92    H     0.45713   0.47553   0.70017   0.00000  Uiso   1.00
H93    H     0.53216   0.51574   0.41724   0.00000  Uiso   1.00
H94    H     0.50892   0.46799   0.41938   0.00000  Uiso   1.00
N95    N     0.49584   0.49089   0.35594   0.00000  Uiso   1.00
N96    N     0.49218   0.49550   0.63277   0.00000  Uiso   1.00
C97    C     0.54172   0.56351   0.81768   0.00000  Uiso   1.00
C98    C     0.02118   0.50694   0.74588   0.00000  Uiso   1.00
C99    C     0.03158   0.54199   0.73454   0.00000  Uiso   1.00
C100   C     0.03296   0.56378   0.78142   0.00000  Uiso   1.00
C101   C     1.02359   0.55080   0.84006   0.00000  Uiso   1.00
C102   C     0.01207   0.51562   0.85219   0.00000  Uiso   1.00
C103   C     0.01128   0.49371   0.80539   0.00000  Uiso   1.00
C104   C     0.02135   0.48444   0.69472   0.00000  Uiso   1.00
H105   H     0.03882   0.55280   0.68956   0.00000  Uiso   1.00
H106   H     1.04104   0.59074   0.77219   0.00000  Uiso   1.00
H107   H     1.02477   0.56812   0.87601   0.00000  Uiso   1.00
H108   H     0.00313   0.46680   0.81528   0.00000  Uiso   1.00
H109   H     0.04525   0.49672   0.67581   0.00000  Uiso   1.00
H110   H     0.01448   0.45844   0.71232   0.00000  Uiso   1.00
C111   C     0.99366   0.49474   0.29397   0.00000  Uiso   1.00
C112   C     0.99726   0.49938   0.23000   0.00000  Uiso   1.00
C113   C     0.97568   0.50583   0.33259   0.00000  Uiso   1.00
C114   C     0.97906   0.50276   0.44311   0.00000  Uiso   1.00
C115   C     0.00404   0.51394   0.48979   0.00000  Uiso   1.00
C116   C     1.00670   0.47874   0.32229   0.00000  Uiso   1.00
C117   C     0.02432   0.46933   0.28907   0.00000  Uiso   1.00
C118   C     0.01468   0.48904   0.19630   0.00000  Uiso   1.00
H119   H     1.00374   0.47377   0.37046   0.00000  Uiso   1.00
H120   H     0.03461   0.45756   0.31160   0.00000  Uiso   1.00
H121   H     0.04218   0.46685   0.20201   0.00000  Uiso   1.00
H122   H     0.98691   0.51103   0.20695   0.00000  Uiso   1.00
H123   H     0.95241   0.48243   0.34332   0.00000  Uiso   1.00
C124   C     0.01478   0.49779   0.59178   0.00000  Uiso   1.00
C125   C     0.99042   0.49091   0.54654   0.00000  Uiso   1.00
H126   H     0.96093   0.50630   0.46274   0.00000  Uiso   1.00
H127   H     0.02266   0.51149   0.46926   0.00000  Uiso   1.00
H128   H     0.01403   0.54172   0.50295   0.00000  Uiso   1.00
H129   H     0.96834   0.47445   0.43301   0.00000  Uiso   1.00
H130   H     0.97223   0.52393   0.30672   0.00000  Uiso   1.00
H131   H     0.02918   0.48863   0.57179   0.00000  Uiso   1.00
H132   H     0.02961   0.52632   0.60063   0.00000  Uiso   1.00
N133   N    -0.00056   0.47897   0.64838   0.00000  Uiso   1.00
N134   N     0.99249   0.52416   0.38788   0.00000  Uiso   1.00
C135   C     0.02860   0.47481   0.22686   0.00000  Uiso   1.00
C136   C     0.49151   0.98488   0.26358   0.00000  Uiso   1.00
C137   C     0.46776   0.98671   0.29217   0.00000  Uiso   1.00
C138   C     0.45207   0.99792   0.26049   0.00000  Uiso   1.00
C139   C     0.45891   1.00605   0.19925   0.00000  Uiso   1.00
C140   C     0.48108   1.00223   0.16842   0.00000  Uiso   1.00
C141   C     0.49779   0.99212   0.20076   0.00000  Uiso   1.00
C142   C     0.51008   0.97583   0.30064   0.00000  Uiso   1.00
H143   H     0.46162   0.98035   0.33945   0.00000  Uiso   1.00
H144   H     0.43463   1.00044   0.28366   0.00000  Uiso   1.00
H145   H     0.44664   0.01512   0.17557   0.00000  Uiso   1.00
H146   H     0.51574   0.99052   0.17757   0.00000  Uiso   1.00
H147   H     0.49568   0.94775   0.31375   0.00000  Uiso   1.00
H148   H     0.52980   0.97922   0.27278   0.00000  Uiso   1.00
C149   C     0.50797   0.03029   0.71953   0.00000  Uiso   1.00
C150   C     0.49703   0.01534   0.77777   0.00000  Uiso   1.00
C151   C     0.48624   0.02585   0.67127   0.00000  Uiso   1.00
C152   C     0.49754   0.01915   0.56475   0.00000  Uiso   1.00
C153   C     0.49605   0.99241   0.51934   0.00000  Uiso   1.00
C154   C     0.53971   0.04936   0.70611   0.00000  Uiso   1.00
C155   C     0.56022   0.05316   0.74943   0.00000  Uiso   1.00
C156   C     0.51778   0.01964   0.82177   0.00000  Uiso   1.00
H157   H     0.54865   0.06117   0.66196   0.00000  Uiso   1.00
H158   H     0.58458   0.06729   0.73816   0.00000  Uiso   1.00
H159   H     0.56556   1.04051   0.83918   0.00000  Uiso   1.00
H160   H     0.47258  -0.00012   0.78842   0.00000  Uiso   1.00
H161   H     0.49349   0.05194   0.65321   0.00000  Uiso   1.00
C162   C     0.50649   0.98177   0.41081   0.00000  Uiso   1.00
C163   C     0.51150   0.00925   0.45830   0.00000  Uiso   1.00
H164   H     0.48389   0.02924   0.54792   0.00000  Uiso   1.00
H165   H     0.50784   0.98053   0.53813   0.00000  Uiso   1.00
H166   H     0.47152   0.97149   0.51249   0.00000  Uiso   1.00
H167   H     0.52184   0.04132   0.56925   0.00000  Uiso   1.00
H168   H     0.46271   0.01431   0.69126   0.00000  Uiso   1.00
H169   H     0.51556   0.96634   0.42688   0.00000  Uiso   1.00
H170   H     0.48140   0.96368   0.40487   0.00000  Uiso   1.00
N171   N     0.52241   0.99926   0.35371   0.00000  Uiso   1.00
N172   N     0.48483   0.00196   0.62365   0.00000  Uiso   1.00
C173   C     0.54936   1.03833   0.80685   0.00000  Uiso   1.00
C174   C     0.36222   0.53324   0.02370   0.00000  Uiso   1.00
C175   C     0.36034   0.53619   0.08700   0.00000  Uiso   1.00
C176   C     0.37710   0.52886   0.12444   0.00000  Uiso   1.00
C177   C     0.39603   0.51867   0.09913   0.00000  Uiso   1.00
C178   C     0.39886   0.51629   0.03581   0.00000  Uiso   1.00
C179   C     0.38183   0.52356  -0.00204   0.00000  Uiso   1.00
C180   C     0.34355   0.54115  -0.01490   0.00000  Uiso   1.00
H181   H     0.34580   0.54418   0.10732   0.00000  Uiso   1.00
H182   H     0.37576   0.53164   0.17315   0.00000  Uiso   1.00
H183   H     0.40950   0.51396   0.12899   0.00000  Uiso   1.00
H184   H     0.38374   0.52159   0.94913   0.00000  Uiso   1.00
H185   H     0.35127   0.56894  -0.00676   0.00000  Uiso   1.00
H186   H     0.34715   0.53773   0.93609   0.00000  Uiso   1.00
C187   C     0.13408   0.46429   0.89351   0.00000  Uiso   1.00
C188   C     0.11990   0.48021  -0.07875   0.00000  Uiso   1.00
C189   C     0.15374   0.45676   0.92991   0.00000  Uiso   1.00
C190   C     0.20465   0.48060  -0.03433   0.00000  Uiso   1.00
C191   C     0.23826   0.51026  -0.04329   0.00000  Uiso   1.00
C192   C     0.12720   0.45227   0.83342   0.00000  Uiso   1.00
C193   C     0.10611   0.45564   0.80194   0.00000  Uiso   1.00
C194   C     0.09692   0.48119   0.89132   0.00000  Uiso   1.00
H195   H     0.13752   0.43945   0.81152   0.00000  Uiso   1.00
H196   H     0.10050   0.44572   0.75602   0.00000  Uiso   1.00
H197   H     0.07295   0.46984   0.80719   0.00000  Uiso   1.00
H198   H     0.12480   0.48893  -0.03198   0.00000  Uiso   1.00
H199   H     0.15254   0.43315   0.91134   0.00000  Uiso   1.00
C200   C     0.29280   0.53079  -0.01878   0.00000  Uiso   1.00
C201   C     0.25890   0.50216  -0.01014   0.00000  Uiso   1.00
H202   H     0.19765   0.47964   0.01428   0.00000  Uiso   1.00
H203   H     0.24442   0.51301   0.90740   0.00000  Uiso   1.00
H204   H     0.24163   0.53514  -0.02571   0.00000  Uiso   1.00
H205   H     0.20199   0.45533   0.95284   0.00000  Uiso   1.00
H206   H     0.14474   0.45095  -0.02231   0.00000  Uiso   1.00
H207   H     0.29817   0.53811   0.93245   0.00000  Uiso   1.00
H208   H     0.29787   0.55403   0.00872   0.00000  Uiso   1.00
N209   N     0.31094   0.51752   0.00194   0.00000  Uiso   1.00
N210   N     0.18556   0.48684   0.92780   0.00000  Uiso   1.00
C211   C     0.09072   0.46962   0.83089   0.00000  Uiso   1.00
C212   C     0.87150   0.33695   0.00024   0.00000  Uiso   1.00
C213   C     0.87775   0.31639  -0.03812   0.00000  Uiso   1.00
C214   C     0.90681   0.33048  -0.06524   0.00000  Uiso   1.00
C215   C     0.93051   0.36500  -0.05319   0.00000  Uiso   1.00
C216   C     0.92542   0.38612  -0.01367   0.00000  Uiso   1.00
C217   C     0.89563   0.37177   0.01286   0.00000  Uiso   1.00
C218   C     0.84004   0.32112   0.03106   0.00000  Uiso   1.00
H219   H     0.86019   0.28922  -0.04693   0.00000  Uiso   1.00
H220   H     0.91099   0.31433  -0.09536   0.00000  Uiso   1.00
H221   H     0.95270   0.37532   0.92437   0.00000  Uiso   1.00
H222   H     0.89124   0.38743   0.04393   0.00000  Uiso   1.00
H223   H     0.84128   0.31252   0.07704   0.00000  Uiso   1.00
H224   H     0.83430   0.34123   0.03625   0.00000  Uiso   1.00
C225   C     0.63564   0.11453   0.99494   0.00000  Uiso   1.00
C226   C     0.60904   0.08171   1.00998   0.00000  Uiso   1.00
C227   C     0.66713   0.12050   0.99649   0.00000  Uiso   1.00
C228   C     0.71725   0.17554   0.99477   0.00000  Uiso   1.00
C229   C     0.73726   0.20963   0.02998   0.00000  Uiso   1.00
C230   C     0.63256   0.14092   0.97214   0.00000  Uiso   1.00
C231   C     0.60352   0.13454   0.96331   0.00000  Uiso   1.00
C232   C     0.57975   0.07510   1.00022   0.00000  Uiso   1.00
H233   H     0.65263   0.16643   0.96050   0.00000  Uiso   1.00
H234   H     0.60118   0.15468   0.94481   0.00000  Uiso   1.00
H235   H     0.55537   0.09657  -0.03589   0.00000  Uiso   1.00
H236   H     0.61122   0.06108   1.02667   0.00000  Uiso   1.00
H237   H     0.67499   0.12079   0.94860   0.00000  Uiso   1.00
C238   C     0.78815   0.26837   0.03161   0.00000  Uiso   1.00
C239   C     0.76762   0.23457   0.99588   0.00000  Uiso   1.00
H240   H     0.72939   0.16173   0.98868   0.00000  Uiso   1.00
H241   H     0.72452   0.22263   0.03684   0.00000  Uiso   1.00
H242   H     0.74205   0.20341   0.07491   0.00000  Uiso   1.00
H243   H     0.71269   0.18167   0.94940   0.00000  Uiso   1.00
H244   H     0.66616   0.09864   1.01993   0.00000  Uiso   1.00
H245   H     0.77568   0.28148   0.04138   0.00000  Uiso   1.00
H246   H     0.79378   0.26147   0.07497   0.00000  Uiso   1.00
N247   N     0.81616   0.29156  -0.00465   0.00000  Uiso   1.00
N248   N     0.68814   0.15328   1.02879   0.00000  Uiso   1.00
C249   C     0.57740   0.10161   0.97564   0.00000  Uiso   1.00
C250   C     0.88128   0.54639   1.02509   0.00000  Uiso   1.00
C251   C     0.89343   0.57666   0.06132   0.00000  Uiso   1.00
C252   C     0.91957   0.58818   0.09499   0.00000  Uiso   1.00
C253   C     0.93386   0.56968   0.09276   0.00000  Uiso   1.00
C254   C     0.92225   0.53972   0.05610   0.00000  Uiso   1.00
C255   C     0.89603   0.52815   1.02211   0.00000  Uiso   1.00
C256   C     0.85333   0.53467   0.98871   0.00000  Uiso   1.00
H257   H     0.88269   0.59139   0.06324   0.00000  Uiso   1.00
H258   H     0.92906   0.61181   0.12206   0.00000  Uiso   1.00
H259   H     0.95471   0.57955   0.11760   0.00000  Uiso   1.00
H260   H     0.88754   0.50543   0.99281   0.00000  Uiso   1.00
H261   H     0.85952   0.55545   0.95499   0.00000  Uiso   1.00
H262   H     0.84607   0.51002   0.96355   0.00000  Uiso   1.00
C263   C     0.64964   0.48844   0.01205   0.00000  Uiso   1.00
C264   C     0.62630   0.49497   0.02333   0.00000  Uiso   1.00
C265   C     0.67490   0.49972   0.05629   0.00000  Uiso   1.00
C266   C     0.72830   0.51722   0.05524   0.00000  Uiso   1.00
C267   C     0.75628   0.52995   1.01271   0.00000  Uiso   1.00
C268   C     0.64891   0.47027   0.95905   0.00000  Uiso   1.00
C269   C     0.62616   0.46010   0.91673   0.00000  Uiso   1.00
C270   C     0.60307   0.48418   0.98110   0.00000  Uiso   1.00
H271   H     0.66627   0.46439   0.95017   0.00000  Uiso   1.00
H272   H     0.62605   0.44654   0.87562   0.00000  Uiso   1.00
H273   H     0.58596   0.45917   0.89409   0.00000  Uiso   1.00
H274   H     0.62621   0.50844   0.06440   0.00000  Uiso   1.00
H275   H     0.67077   0.47564   0.07773   0.00000  Uiso   1.00
C276   C     0.80487   0.53022   0.99696   0.00000  Uiso   1.00
C277   C     0.77974   0.52492   0.04207   0.00000  Uiso   1.00
H278   H     0.73509   0.53393   0.09668   0.00000  Uiso   1.00
H279   H     0.74873   0.51474   0.96959   0.00000  Uiso   1.00
H280   H     0.76706   0.55813   1.00249   0.00000  Uiso   1.00
H281   H     0.71944   0.48980   0.06835   0.00000  Uiso   1.00
H282   H     0.67440   0.51672   0.09263   0.00000  Uiso   1.00
H283   H     0.79462   0.50907   0.96212   0.00000  Uiso   1.00
H284   H     0.81534   0.55614   0.97481   0.00000  Uiso   1.00
N285   N     0.82815   0.52895   0.02974   0.00000  Uiso   1.00
N286   N     0.70482   0.51896   0.02379   0.00000  Uiso   1.00
C287   C     0.60350   0.46729   0.92738   0.00000  Uiso   1.00
C288   C     0.35539   0.86350   0.05213   0.00000  Uiso   1.00
C289   C     0.36296   0.84401   0.08690   0.00000  Uiso   1.00
C290   C     0.39329   0.85329   0.08875   0.00000  Uiso   1.00
C291   C     0.41635   0.88246   0.05689   0.00000  Uiso   1.00
C292   C     0.40933   0.90311   0.02395   0.00000  Uiso   1.00
C293   C     0.37880   0.89362   0.02158   0.00000  Uiso   1.00
C294   C     0.32232   0.85116   0.04700   0.00000  Uiso   1.00
H295   H     0.34521   0.82098   0.11114   0.00000  Uiso   1.00
H296   H     0.39892   0.83777   0.11476   0.00000  Uiso   1.00
H297   H     0.43986   0.88948   0.05930   0.00000  Uiso   1.00
H298   H     0.37338   0.90932  -0.00435   0.00000  Uiso   1.00
H299   H     0.31343   0.85274   0.09285   0.00000  Uiso   1.00
H300   H     0.31969   0.86801   0.01578   0.00000  Uiso   1.00
C301   C     0.12361   0.65034   0.98855   0.00000  Uiso   1.00
C302   C     0.10134   0.61461   0.99796   0.00000  Uiso   1.00
C303   C     0.15607   0.66286   0.97011   0.00000  Uiso   1.00
C304   C     0.20820   0.70521   0.99904   0.00000  Uiso   1.00
C305   C     0.22651   0.73374   0.04580   0.00000  Uiso   1.00
C306   C     0.11572   0.67500   0.99821   0.00000  Uiso   1.00
C307   C     0.08611   0.66427   1.01817   0.00000  Uiso   1.00
C308   C     0.07140   0.60349   1.01865   0.00000  Uiso   1.00
H309   H     0.13264   0.70260   0.99038   0.00000  Uiso   1.00
H310   H     0.08023   0.68351   1.02529   0.00000  Uiso   1.00
H311   H     0.04120   0.62128   1.04347   0.00000  Uiso   1.00
H312   H     0.10752   0.59571   0.98966   0.00000  Uiso   1.00
H313   H     0.16204   0.67830   0.92763   0.00000  Uiso   1.00
C314   C     0.27574   0.79343   0.05280   0.00000  Uiso   1.00
C315   C     0.25906   0.75833   0.02050   0.00000  Uiso   1.00
H316   H     0.21728   0.68816   0.99366   0.00000  Uiso   1.00
H317   H     0.21517   0.74827   0.05498   0.00000  Uiso   1.00
H318   H     0.22714   0.72202   0.08891   0.00000  Uiso   1.00
H319   H     0.21062   0.71801   0.95493   0.00000  Uiso   1.00
H320   H     0.15876   0.64062   0.96101   0.00000  Uiso   1.00
H321   H     0.26235   0.80572   0.04991   0.00000  Uiso   1.00
H322   H     0.27858   0.78954   0.10111   0.00000  Uiso   1.00
N323   N     0.30572   0.81547   0.02260   0.00000  Uiso   1.00
N324   N     0.17600   0.68435   1.01946   0.00000  Uiso   1.00
C325   C     0.06410   0.62883   1.02863   0.00000  Uiso   1.00
C326   C     0.51864   0.84199   0.93071   0.00000  Uiso   1.00
C327   C     0.49239   0.82142   0.89579   0.00000  Uiso   1.00
C328   C     0.47242   0.83221   0.88662   0.00000  Uiso   1.00
C329   C     0.47869   0.86370   0.91164   0.00000  Uiso   1.00
C330   C     0.50485   0.88445   0.94643   0.00000  Uiso   1.00
C331   C     0.52478   0.87359   0.95648   0.00000  Uiso   1.00
C332   C     0.53926   0.82936   0.94080   0.00000  Uiso   1.00
H333   H     0.48731   0.79685   0.87616   0.00000  Uiso   1.00
H334   H     0.45212   0.81623   0.86007   0.00000  Uiso   1.00
H335   H     0.46318   0.87204   0.90372   0.00000  Uiso   1.00
H336   H     0.54486   0.88968   0.98366   0.00000  Uiso   1.00
H337   H     0.54804   0.82639   0.89570   0.00000  Uiso   1.00
H338   H     0.55924   0.84834   0.96845   0.00000  Uiso   1.00
C339   C     0.55573   0.65400   0.12331   0.00000  Uiso   1.00
C340   C     0.53853   0.62008   0.09889   0.00000  Uiso   1.00
C341   C     0.54188   0.67535   0.12764   0.00000  Uiso   1.00
C342   C     0.52391   0.70213   0.06309   0.00000  Uiso   1.00
C343   C     0.53384   0.72415   1.00596   0.00000  Uiso   1.00
C344   C     0.58684   0.66915   0.13539   0.00000  Uiso   1.00
C345   C     0.60056   0.65047   0.12315   0.00000  Uiso   1.00
C346   C     0.55199   0.60084   0.08700   0.00000  Uiso   1.00
H347   H     0.60068   0.69576   0.15238   0.00000  Uiso   1.00
H348   H     0.62482   0.66267   0.13090   0.00000  Uiso   1.00
H349   H     0.59465   0.60284   0.08954   0.00000  Uiso   1.00
H350   H     0.51486   0.60933   0.08754   0.00000  Uiso   1.00
H351   H     0.55538   0.69839   0.15795   0.00000  Uiso   1.00
C352   C     0.53648   0.77698   0.96682   0.00000  Uiso   1.00
C353   C     0.51861   0.74462   1.00612   0.00000  Uiso   1.00
H354   H     0.49917   0.68075   0.06095   0.00000  Uiso   1.00
H355   H     0.55930   0.74242   1.00528   0.00000  Uiso   1.00
H356   H     0.52720   0.70716   0.96489   0.00000  Uiso   1.00
H357   H     0.52754   0.71908   0.10339   0.00000  Uiso   1.00
H358   H     0.51794   0.65921   0.14671   0.00000  Uiso   1.00
H359   H     0.56044   0.79365   0.98289   0.00000  Uiso   1.00
H360   H     0.53658   0.76900   0.91875   0.00000  Uiso   1.00
N361   N     0.52137   0.79596   0.97259   0.00000  Uiso   1.00
N362   N     0.54236   0.68710   0.06640   0.00000  Uiso   1.00
C363   C     0.58329   0.61649   0.09940   0.00000  Uiso   1.00
C364   C     0.44600   0.34174   0.88632   0.00000  Uiso   1.00
C365   C     0.41392   0.32368   0.88336   0.00000  Uiso   1.00
C366   C     0.39907   0.34132   0.89364   0.00000  Uiso   1.00
C367   C     0.41595   0.37698   0.90822   0.00000  Uiso   1.00
C368   C     0.44813   0.39562   0.91166   0.00000  Uiso   1.00
C369   C     0.46297   0.37775   0.89947   0.00000  Uiso   1.00
C370   C     0.46204   0.32268   0.87580   0.00000  Uiso   1.00
H371   H     0.40041   0.29594   0.87308   0.00000  Uiso   1.00
H372   H     0.37429   0.32717   0.89143   0.00000  Uiso   1.00
H373   H     0.40375   0.38968   0.91842   0.00000  Uiso   1.00
H374   H     0.48774   0.39154   0.90201   0.00000  Uiso   1.00
H375   H     0.45284   0.30599   0.83452   0.00000  Uiso   1.00
H376   H     0.48711   0.34192   0.86755   0.00000  Uiso   1.00
C377   C     0.52305   0.18104   0.07574   0.00000  Uiso   1.00
C378   C     0.50992   0.14923   0.04375   0.00000  Uiso   1.00
C379   C     0.50571   0.19863   0.08348   0.00000  Uiso   1.00
C380   C     0.48598   0.22763   0.03093   0.00000  Uiso   1.00
C381   C     0.48937   0.24711  -0.02728   0.00000  Uiso   1.00
C382   C     0.55131   0.19475   0.10382   0.00000  Uiso   1.00
C383   C     0.56571   0.17633   0.10163   0.00000  Uiso   1.00
C384   C     0.52427   0.13068   0.04188   0.00000  Uiso   1.00
H385   H     0.56185   0.21922   0.12864   0.00000  Uiso   1.00
H386   H     0.58708   0.18644   0.12461   0.00000  Uiso   1.00
H387   H     0.56245   0.12918   0.07385   0.00000  Uiso   1.00
H388   H     0.48758   0.13781   0.02397   0.00000  Uiso   1.00
H389   H     0.51674   0.21988   0.11802   0.00000  Uiso   1.00
C390   C     0.47529   0.28541   0.92147   0.00000  Uiso   1.00
C391   C     0.47021   0.26336  -0.02284   0.00000  Uiso   1.00
H392   H     0.46147   0.20601   0.03827   0.00000  Uiso   1.00
H393   H     0.51402   0.26810   0.96521   0.00000  Uiso   1.00
H394   H     0.48171   0.22856   0.93373   0.00000  Uiso   1.00
H395   H     0.49325   0.24622   0.06997   0.00000  Uiso   1.00
H396   H     0.48190   0.17892   0.10012   0.00000  Uiso   1.00
H397   H     0.50016   0.30639   0.91715   0.00000  Uiso   1.00
H398   H     0.46825   0.26847   0.88028   0.00000  Uiso   1.00
N399   N     0.45708   0.30103   0.92862   0.00000  Uiso   1.00
N400   N     0.50516   0.21317   0.02546   0.00000  Uiso   1.00
C401   C     0.55195   0.14410   0.07184   0.00000  Uiso   1.00
loop_
_geom_bond_atom_site_label_1
_geom_bond_atom_site_label_2
_geom_bond_distance
_geom_bond_site_symmetry_2
_ccdc_geom_bond_type
Ce0    O9      2.251   .     S
Ce0    O10     2.298   .     S
Ce0    O19     2.316   .     S
Ce0    O11     2.282   1_554 S
Ce0    O12     2.320   1_554 S
Ce0    O14     2.332   1_554 S
Ce0    O15     2.265   1_554 S
Ce1    O13     2.330   .     S
Ce1    O15     2.263   .     S
Ce1    O16     2.316   .     S
Ce1    O8      2.330   1_556 S
Ce1    O9      2.268   1_556 S
Ce1    O17     2.280   1_556 S
Ce1    O18     2.346   1_556 S
C2     O8      1.200   .     D
C2     O9      1.355   .     S
C2     C64     1.455   .     S
C3     O10     1.277   .     A
C3     O11     1.273   1_554 A
C3     C270    1.473   1_554 S
C4     O12     1.302   .     A
C4     O13     1.305   .     A
C4     C346    1.485   1_556 S
C5     O14     1.205   .     D
C5     O15     1.360   .     S
C5     C80     1.457   .     S
C6     O16     1.273   .     A
C6     O17     1.266   1_556 A
C6     C178    1.475   1_556 S
C7     O18     1.308   .     A
C7     O19     1.304   .     A
C7     C368    1.485   1_554 S
O8     Ce1     2.330   1_554 S
O9     Ce1     2.268   1_554 S
O11    Ce0     2.282   1_556 S
O11    C3      1.273   1_556 A
O12    Ce0     2.320   1_556 S
O14    Ce0     2.332   1_556 S
O15    Ce0     2.265   1_556 S
O17    Ce1     2.280   1_554 S
O17    C6      1.266   1_554 A
O18    Ce1     2.346   1_554 S
Ce20   O31     2.309   .     S
Ce20   O34     2.319   .     S
Ce20   O35     2.334   .     S
Ce20   O39     2.441   .     S
Ce20   O29     2.249   1_454 S
Ce20   O30     2.317   1_554 S
Ce20   O32     2.377   1_455 S
Ce21   O33     2.282   .     S
Ce21   O36     2.291   .     S
Ce21   O28     2.350   1_554 S
Ce21   O29     2.334   1_554 S
Ce21   O35     2.294   1_655 S
Ce21   O37     2.277   1_554 S
Ce21   O38     2.267   1_654 S
C22    O28     1.200   .     D
C22    O29     1.354   .     S
C22    C102    1.465   1_655 S
C23    O30     1.260   .     A
C23    C194    1.475   .     S
C23    O31     1.257   1_556 A
C24    O32     1.298   .     A
C24    O33     1.285   .     A
C24    C216    1.495   .     S
C25    O34     1.195   .     D
C25    O35     1.364   .     S
C25    C118    1.479   .     S
C26    O36     1.274   .     A
C26    C254    1.464   .     S
C26    O37     1.270   1_554 A
C27    O38     1.281   .     A
C27    C308    1.487   .     S
C27    O39     1.314   1_556 A
O28    Ce21    2.350   1_556 S
O29    Ce20    2.249   1_656 S
O29    Ce21    2.334   1_556 S
O30    Ce20    2.317   1_556 S
O31    C23     1.257   1_554 A
O32    Ce20    2.377   1_655 S
O35    Ce21    2.294   1_455 S
O37    Ce21    2.277   1_556 S
O37    C26     1.270   1_556 A
O38    Ce21    2.267   1_456 S
O39    C27     1.314   1_554 A
Ce40   O51     2.269   .     S
Ce40   O54     2.331   .     S
Ce40   O55     2.344   .     S
Ce40   O59     2.244   .     S
Ce40   O49     2.386   1_566 S
Ce40   O50     2.286   1_556 S
Ce40   O52     2.282   1_565 S
Ce41   O48     2.339   .     S
Ce41   O49     2.349   .     S
Ce41   O53     2.398   .     S
Ce41   O57     2.293   .     S
Ce41   O55     2.293   1_544 S
Ce41   O56     2.324   1_554 S
Ce41   O58     2.397   1_545 S
C42    O48     1.211   .     D
C42    O49     1.378   .     S
C42    C140    1.470   1_545 S
C43    O51     1.269   .     A
C43    C330    1.456   .     S
C43    O50     1.272   1_556 A
C44    O52     1.272   .     A
C44    C232    1.473   .     S
C44    O53     1.299   1_556 A
C45    O54     1.205   .     D
C45    O55     1.375   .     S
C45    C156    1.474   1_565 S
C46    O57     1.264   .     A
C46    C384    1.462   .     S
C46    O56     1.270   1_554 A
C47    O58     1.294   .     A
C47    C292    1.465   .     S
C47    O59     1.262   1_554 A
O49    Ce40    2.386   1_544 S
O50    Ce40    2.286   1_554 S
O50    C43     1.272   1_554 A
O52    Ce40    2.282   1_545 S
O53    C44     1.299   1_554 A
O55    Ce41    2.293   1_566 S
O56    Ce41    2.324   1_556 S
O56    C46     1.270   1_556 A
O58    Ce41    2.397   1_565 S
O59    C47     1.262   1_556 A
C60    C61     1.407   .     A
C60    C65     1.397   .     A
C60    C66     1.488   .     S
C61    C62     1.396   .     A
C61    H67     1.085   .     S
C62    C63     1.397   .     A
C62    H68     1.083   .     S
C63    C64     1.404   .     A
C63    H69     1.083   .     S
C64    C65     1.391   .     A
C65    H70     1.083   .     S
C66    H71     1.115   .     S
C66    H72     1.112   .     S
C66    N95     1.458   .     S
C73    C74     1.402   .     A
C73    C75     1.493   .     S
C73    C78     1.405   .     A
C74    C80     1.396   .     A
C74    H84     1.083   .     S
C75    H85     1.114   .     S
C75    H92     1.110   .     S
C75    N96     1.459   .     S
C76    C77     1.512   .     S
C76    H88     1.112   .     S
C76    H91     1.113   .     S
C76    N96     1.456   .     S
C77    C87     1.512   .     S
C77    H89     1.112   .     S
C77    H90     1.111   .     S
C78    C79     1.395   .     A
C78    H81     1.083   .     S
C79    H82     1.083   .     S
C79    C97     1.395   .     A
C80    C97     1.403   .     A
H83    C97     1.084   .     S
C86    C87     1.508   .     S
C86    H93     1.112   .     S
C86    H94     1.112   .     S
C86    N95     1.451   .     S
C98    C99     1.406   .     A
C98    C103    1.413   .     A
C98    C104    1.509   .     S
C99    C100    1.392   .     A
C99    H105    1.077   .     S
C100   C101    1.390   1_455 A
C100   H106    1.083   1_455 S
C101   H107    1.084   .     S
C101   C100    1.390   1_655 A
C101   C102    1.402   1_655 A
C102   C103    1.405   .     A
C102   C101    1.402   1_455 A
C102   C22     1.465   1_455 S
C103   H108    1.083   .     S
C104   H109    1.114   .     S
C104   H110    1.111   .     S
C104   N133    1.472   .     S
H106   C100    1.083   1_655 S
C111   C112    1.421   .     A
C111   C113    1.513   .     S
C111   C116    1.406   .     A
C112   H122    1.085   .     S
C112   C118    1.412   1_655 A
C113   H123    1.112   .     S
C113   H130    1.110   .     S
C113   N134    1.476   .     S
C114   H126    1.111   .     S
C114   H129    1.112   .     S
C114   N134    1.473   .     S
C114   C115    1.534   1_655 S
C115   H127    1.112   .     S
C115   H128    1.111   .     S
C115   C114    1.534   1_455 S
C115   C125    1.534   1_455 S
C116   H119    1.079   .     S
C116   C117    1.387   1_655 A
C117   H120    1.081   .     S
C117   C135    1.387   .     A
C117   C116    1.387   1_455 A
C118   C135    1.404   .     A
C118   C112    1.412   1_455 A
H121   C135    1.082   .     S
C124   H131    1.112   .     S
C124   H132    1.108   .     S
C124   N133    1.469   .     S
C124   C125    1.530   1_455 S
C125   C115    1.534   1_655 S
C125   C124    1.530   1_655 S
C136   C137    1.407   .     A
C136   C141    1.415   .     A
C136   C142    1.511   .     S
C137   C138    1.389   .     A
C137   H143    1.077   .     S
C138   C139    1.389   .     A
C138   H144    1.082   .     S
C139   C140    1.405   .     A
C139   H145    1.084   1_565 S
C140   C141    1.406   .     A
C140   C42     1.470   1_565 S
C141   H146    1.083   .     S
C142   H147    1.113   .     S
C142   H148    1.111   .     S
C142   N171    1.472   .     S
H145   C139    1.084   1_545 S
C149   C150    1.414   .     A
C149   C151    1.509   .     S
C149   C154    1.404   .     A
C150   C156    1.407   .     A
C150   H160    1.083   .     S
C151   H161    1.113   .     S
C151   H168    1.111   .     S
C151   N172    1.469   .     S
C152   H164    1.113   .     S
C152   H167    1.111   .     S
C152   N172    1.468   .     S
C152   C153    1.530   1_545 S
C153   H165    1.111   .     S
C153   H166    1.112   .     S
C153   C152    1.530   1_565 S
C153   C163    1.529   1_565 S
C154   C155    1.394   .     A
C154   H157    1.082   .     S
C155   H158    1.082   .     S
C155   C173    1.396   1_545 A
C156   C173    1.404   1_545 A
C156   C45     1.474   1_545 S
H159   C173    1.084   .     S
C162   H169    1.110   .     S
C162   H170    1.108   .     S
C162   N171    1.468   .     S
C162   C163    1.528   1_565 S
C163   C153    1.529   1_545 S
C163   C162    1.528   1_545 S
C173   C155    1.396   1_565 A
C173   C156    1.404   1_565 A
C174   C175    1.403   .     A
C174   C179    1.412   .     A
C174   C180    1.502   .     S
C175   C176    1.392   .     A
C175   H181    1.083   .     S
C176   C177    1.394   .     A
C176   H182    1.082   .     S
C177   C178    1.405   .     A
C177   H183    1.084   .     S
C178   C179    1.407   .     A
C178   C6      1.475   1_554 S
C179   H184    1.083   1_554 S
C180   H185    1.113   .     S
C180   N209    1.465   .     S
C180   H186    1.111   1_554 S
H184   C179    1.083   1_556 S
H186   C180    1.111   1_556 S
C187   C189    1.505   .     S
C187   C192    1.403   .     A
C187   C188    1.405   1_556 A
C188   H198    1.084   .     S
C188   C187    1.405   1_554 A
C188   C194    1.408   1_554 A
C189   H199    1.113   .     S
C189   N210    1.461   .     S
C189   H206    1.113   1_556 S
C190   C191    1.524   .     S
C190   H202    1.112   .     S
C190   H205    1.114   1_554 S
C190   N210    1.465   1_554 S
C191   C201    1.525   .     S
C191   H204    1.112   .     S
C191   H203    1.112   1_554 S
C192   C193    1.397   .     A
C192   H195    1.083   .     S
C193   H196    1.081   .     S
C193   C211    1.398   .     A
C194   C211    1.403   .     A
C194   C188    1.408   1_556 A
H197   C211    1.083   .     S
C200   C201    1.522   .     S
C200   H208    1.112   .     S
C200   N209    1.461   .     S
C200   H207    1.112   1_554 S
H203   C191    1.112   1_556 S
H205   C190    1.114   1_556 S
H206   C189    1.113   1_554 S
H207   C200    1.112   1_556 S
N210   C190    1.465   1_556 S
C212   C213    1.405   .     A
C212   C217    1.414   .     A
C212   C218    1.518   .     S
C213   C214    1.393   .     A
C213   H219    1.082   .     S
C214   C215    1.397   .     A
C214   H220    1.082   .     S
C215   C216    1.406   .     A
C215   H221    1.082   1_554 S
C216   C217    1.417   .     A
C217   H222    1.084   .     S
C218   H223    1.112   .     S
C218   H224    1.112   .     S
C218   N247    1.473   .     S
H221   C215    1.082   1_556 S
C225   C226    1.411   .     A
C225   C227    1.506   .     S
C225   C230    1.406   .     A
C226   C232    1.405   .     A
C226   H236    1.082   .     S
C227   H237    1.115   .     S
C227   H244    1.110   .     S
C227   N248    1.469   .     S
C228   H240    1.113   .     S
C228   H243    1.113   .     S
C228   N248    1.467   .     S
C228   C229    1.528   1_556 S
C229   H241    1.110   .     S
C229   H242    1.110   .     S
C229   C228    1.528   1_554 S
C229   C239    1.529   1_554 S
C230   C231    1.392   .     A
C230   H233    1.084   .     S
C231   H234    1.082   .     S
C231   C249    1.391   .     A
C232   C249    1.404   .     A
H235   C249    1.076   1_554 S
C238   H245    1.110   .     S
C238   H246    1.111   .     S
C238   N247    1.465   .     S
C238   C239    1.530   1_554 S
C239   C229    1.529   1_556 S
C239   C238    1.530   1_556 S
C249   H235    1.076   1_556 S
C250   C255    1.406   .     A
C250   C256    1.502   .     S
C250   C251    1.405   1_556 A
C251   C252    1.396   .     A
C251   H257    1.083   .     S
C251   C250    1.405   1_554 A
C252   C253    1.396   .     A
C252   H258    1.082   .     S
C253   C254    1.402   .     A
C253   H259    1.084   .     S
C254   C255    1.403   1_554 A
C255   H260    1.084   .     S
C255   C254    1.403   1_556 A
C256   H261    1.113   .     S
C256   H262    1.112   .     S
C256   N285    1.465   1_556 S
C263   C264    1.411   .     A
C263   C265    1.507   .     S
C263   C268    1.405   1_554 A
C264   H274    1.083   .     S
C264   C270    1.406   1_554 A
C265   H275    1.112   .     S
C265   H282    1.111   .     S
C265   N286    1.468   .     S
C266   H278    1.112   .     S
C266   H281    1.113   .     S
C266   N286    1.466   .     S
C266   C267    1.526   1_554 S
C267   H279    1.112   .     S
C267   H280    1.111   .     S
C267   C266    1.526   1_556 S
C267   C277    1.527   1_556 S
C268   C269    1.395   .     A
C268   H271    1.083   .     S
C268   C263    1.405   1_556 A
C269   H272    1.083   .     S
C269   C287    1.395   .     A
C270   C287    1.403   .     A
C270   C264    1.406   1_556 A
C270   C3      1.473   1_556 S
H273   C287    1.083   .     S
C276   H283    1.112   .     S
C276   H284    1.113   .     S
C276   C277    1.523   1_556 S
C276   N285    1.461   1_556 S
C277   C267    1.527   1_554 S
C277   C276    1.523   1_554 S
N285   C256    1.465   1_554 S
N285   C276    1.461   1_554 S
C288   C289    1.404   .     A
C288   C293    1.406   .     A
C288   C294    1.495   .     S
C289   C290    1.392   .     A
C289   H295    1.082   .     S
C290   C291    1.392   .     A
C290   H296    1.084   .     S
C291   C292    1.406   .     A
C291   H297    1.084   .     S
C292   C293    1.400   .     A
C293   H298    1.083   .     S
C294   H299    1.112   .     S
C294   H300    1.110   .     S
C294   N323    1.463   .     S
C301   C302    1.406   .     A
C301   C303    1.498   .     S
C301   C306    1.402   .     A
C302   C308    1.407   .     A
C302   H312    1.082   .     S
C303   H313    1.114   .     S
C303   H320    1.111   .     S
C303   N324    1.462   .     S
C304   H316    1.112   .     S
C304   H319    1.114   .     S
C304   N324    1.459   .     S
C304   C305    1.521   1_556 S
C305   C315    1.521   .     S
C305   H317    1.113   .     S
C305   H318    1.112   .     S
C305   C304    1.521   1_554 S
C306   C307    1.392   .     A
C306   H309    1.085   .     S
C307   H310    1.083   .     S
C307   C325    1.397   .     A
C308   C325    1.411   .     A
H311   C325    1.081   .     S
C314   C315    1.515   .     S
C314   H321    1.111   .     S
C314   H322    1.112   .     S
C314   N323    1.457   .     S
C326   C327    1.406   .     A
C326   C331    1.405   .     A
C326   C332    1.493   .     S
C327   C328    1.393   .     A
C327   H333    1.084   .     S
C328   C329    1.392   .     A
C328   H334    1.082   .     S
C329   C330    1.403   .     A
C329   H335    1.084   .     S
C330   C331    1.397   .     A
C331   H336    1.084   .     S
C332   H337    1.114   .     S
C332   H338    1.113   .     S
C332   N361    1.460   .     S
C339   C340    1.402   .     A
C339   C341    1.495   .     S
C339   C344    1.401   .     A
C340   C346    1.406   .     A
C340   H350    1.083   .     S
C341   H351    1.113   .     S
C341   H358    1.114   .     S
C341   N362    1.459   .     S
C342   H354    1.112   .     S
C342   H357    1.115   .     S
C342   N362    1.456   .     S
C342   C343    1.519   1_554 S
C343   C353    1.519   .     S
C343   H355    1.113   .     S
C343   H356    1.112   .     S
C343   C342    1.519   1_556 S
C344   C345    1.395   .     A
C344   H347    1.084   .     S
C345   H348    1.082   .     S
C345   C363    1.399   .     A
C346   C363    1.408   .     A
C346   C4      1.485   1_554 S
H349   C363    1.081   .     S
C352   C353    1.515   .     S
C352   H359    1.113   .     S
C352   H360    1.113   .     S
C352   N361    1.455   .     S
C364   C365    1.402   .     A
C364   C369    1.405   .     A
C364   C370    1.508   .     S
C365   C366    1.398   .     A
C365   H371    1.083   .     S
C366   C367    1.398   .     A
C366   H372    1.082   .     S
C367   C368    1.406   .     A
C367   H373    1.083   .     S
C368   C369    1.412   .     A
C368   C7      1.485   1_556 S
C369   H374    1.083   .     S
C370   H375    1.112   .     S
C370   H376    1.113   .     S
C370   N399    1.468   .     S
C377   C378    1.404   .     A
C377   C379    1.503   .     S
C377   C382    1.406   .     A
C378   C384    1.400   .     A
C378   H388    1.084   .     S
C379   H389    1.112   .     S
C379   H396    1.113   .     S
C379   N400    1.463   .     S
C380   C381    1.528   .     S
C380   H392    1.113   .     S
C380   H395    1.114   .     S
C380   N400    1.466   .     S
C381   C391    1.532   .     S
C381   H393    1.112   1_554 S
C381   H394    1.111   1_554 S
C382   C383    1.397   .     A
C382   H385    1.082   .     S
C383   H386    1.083   .     S
C383   C401    1.394   .     A
C384   C401    1.403   .     A
H387   C401    1.083   .     S
C390   H397    1.112   .     S
C390   H398    1.112   .     S
C390   N399    1.466   .     S
C390   C391    1.528   1_556 S
C391   C390    1.528   1_554 S
H393   C381    1.112   1_556 S
H394   C381    1.111   1_556 S
