data_kag+N248+E161
_audit_creation_date              2025-01-21
_audit_creation_method            'Materials Studio'
_symmetry_space_group_name_H-M    'P1'
_symmetry_Int_Tables_number       1
_symmetry_cell_setting            triclinic
loop_
_symmetry_equiv_pos_as_xyz
  x,y,z
_cell_length_a                    49.0441
_cell_length_b                    51.0222
_cell_length_c                    23.8982
_cell_angle_alpha                 95.7687
_cell_angle_beta                  93.2364
_cell_angle_gamma                 125.0988
loop_
_atom_site_label
_atom_site_type_symbol
_atom_site_fract_x
_atom_site_fract_y
_atom_site_fract_z
_atom_site_U_iso_or_equiv
_atom_site_adp_type
_atom_site_occupancy
O0     O     0.51005   0.53131   0.90683   0.00000  Uiso   1.00
Yb1    Yb    0.47431   0.46097   0.96198   0.00000  Uiso   1.00
C2     C     0.47360   0.41590  -0.00158   0.00000  Uiso   1.00
Yb3    Yb    0.51367   0.53217  -0.00174   0.00000  Uiso   1.00
O4     O     0.47589   0.47614   0.88005   0.00000  Uiso   1.00
C5     C     0.45319   0.51501  -0.00048   0.00000  Uiso   1.00
C6     C     0.49318   0.50540   0.86842   0.00000  Uiso   1.00
O7     O     0.51154   0.57268   1.01536   0.00000  Uiso   1.00
C8     C     0.54364   0.59285   1.02090   0.00000  Uiso   1.00
O9     O     0.51586   0.46103   0.93024   0.00000  Uiso   1.00
O10    O     0.52776   0.50010  -0.00926   0.00000  Uiso   1.00
O11    O     0.48462   0.46725   0.05749   0.00000  Uiso   1.00
O12    O     0.55984   0.58027   0.01623   0.00000  Uiso   1.00
O13    O     0.51216   0.52267   0.08352   0.00000  Uiso   1.00
C14    C     0.53887   0.48784   0.95320   0.00000  Uiso   1.00
C15    C     0.49898   0.49376   0.09565   0.00000  Uiso   1.00
O16    O     0.47291   0.43701   0.03215   0.00000  Uiso   1.00
O17    O     0.47708   0.42107   0.94712   0.00000  Uiso   1.00
O18    O     0.47787   0.54362   0.00840   0.00000  Uiso   1.00
O19    O     0.46112   0.49327   0.98477   0.00000  Uiso   1.00
O20    O     0.97493   0.50556   0.91482   0.00000  Uiso   1.00
Yb21   Yb    0.02250   0.49750   0.00730   0.00000  Uiso   1.00
C22    C     0.06653   0.48591   0.00999   0.00000  Uiso   1.00
Yb23   Yb    0.97521   0.51260   1.00556   0.00000  Uiso   1.00
O24    O     0.01423   0.49435   0.91643   0.00000  Uiso   1.00
C25    C     0.93454   0.45082  -0.00113   0.00000  Uiso   1.00
C26    C    -0.00643   0.49875   0.88967   0.00000  Uiso   1.00
O27    O     0.92377   0.49578   1.00256   0.00000  Uiso   1.00
C28    C     0.93181   0.52463   1.00409   0.00000  Uiso   1.00
O29    O     0.07240   0.54166   1.01446   0.00000  Uiso   1.00
O30    O     0.02816   0.54297   0.01014   0.00000  Uiso   1.00
O31    O     0.02227   0.50400   0.09775   0.00000  Uiso   1.00
O32    O     0.96320   0.54691   0.00634   0.00000  Uiso   1.00
O33    O     0.98379   0.51614   0.09660   0.00000  Uiso   1.00
C34    C     0.06284   0.55921   0.01351   0.00000  Uiso   1.00
C35    C     0.00390   0.51104   0.12312   0.00000  Uiso   1.00
O36    O     0.07428   0.51473   0.01301   0.00000  Uiso   1.00
O37    O     0.03498   0.46346   1.00525   0.00000  Uiso   1.00
O38    O     0.92542   0.46880   0.00031   0.00000  Uiso   1.00
O39    O     0.96927   0.46689   1.00156   0.00000  Uiso   1.00
O40    O     0.48833   0.01270   0.09875   0.00000  Uiso   1.00
Yb41   Yb    0.51768   0.98162   0.00754   0.00000  Uiso   1.00
C42    C     0.53154   0.94084   1.00481   0.00000  Uiso   1.00
Yb43   Yb    0.49712   0.02523   1.01522   0.00000  Uiso   1.00
O44    O     0.50899   0.98201   0.09557   0.00000  Uiso   1.00
C45    C     0.55788   0.05361  -0.00867   0.00000  Uiso   1.00
C46    C     0.49653  -0.00432   0.12181   0.00000  Uiso   1.00
O47    O     0.51119   0.07269   0.04193   0.00000  Uiso   1.00
C48    C     0.48216   0.06496   0.02313   0.00000  Uiso   1.00
O49    O     0.47139   0.93334  -0.00337   0.00000  Uiso   1.00
O50    O     0.47239   0.97540   0.98254   0.00000  Uiso   1.00
O51    O     0.51844   0.98612   0.91817   0.00000  Uiso   1.00
O52    O     0.46083   0.03528   0.99949   0.00000  Uiso   1.00
O53    O     0.50200   0.02070   0.92249   0.00000  Uiso   1.00
C54    C     0.45411   0.94350  -0.00789   0.00000  Uiso   1.00
C55    C     0.50927   0.00229   0.89397   0.00000  Uiso   1.00
O56    O     0.50158   0.93228   0.99057   0.00000  Uiso   1.00
O57    O     0.55385   0.97128   0.02037   0.00000  Uiso   1.00
O58    O     0.53619   0.05397   0.96394   0.00000  Uiso   1.00
O59    O     0.54552   0.03350   0.03210   0.00000  Uiso   1.00
H60    H     0.44170   0.47177   0.78225   0.00000  Uiso   1.00
C61    C     0.49974   0.49077   0.15626   0.00000  Uiso   1.00
C62    C     0.53028   0.50930   0.19296   0.00000  Uiso   1.00
C63    C     0.53079   0.50964   0.25191   0.00000  Uiso   1.00
C64    C     0.50015   0.49193   0.27459   0.00000  Uiso   1.00
C65    C     0.46936   0.47286   0.23746   0.00000  Uiso   1.00
C66    C     0.46951   0.47201   0.17852   0.00000  Uiso   1.00
C67    C     0.56391   0.52928   0.29042   0.00000  Uiso   1.00
C68    C     0.43638   0.45450   0.26058   0.00000  Uiso   1.00
C69    C     0.50131   0.51963   0.36457   0.00000  Uiso   1.00
C70    C     0.50174   0.52283   0.42388   0.00000  Uiso   1.00
C71    C     0.50094   0.49974   0.45286   0.00000  Uiso   1.00
C72    C     0.49973   0.47390   0.42227   0.00000  Uiso   1.00
C73    C     0.49942   0.47173   0.36297   0.00000  Uiso   1.00
C74    C     0.50291   0.54848   0.45481   0.00000  Uiso   1.00
C75    C     0.50314   0.55110   0.51369   0.00000  Uiso   1.00
C76    C     0.50219   0.52811   0.54306   0.00000  Uiso   1.00
C77    C     0.50124   0.50242   0.51254   0.00000  Uiso   1.00
C78    C     0.50048   0.47935   0.54153   0.00000  Uiso   1.00
C79    C     0.49929   0.45368   0.51058   0.00000  Uiso   1.00
C80    C     0.49883   0.45094   0.45163   0.00000  Uiso   1.00
C81    C     0.50188   0.52997   0.60222   0.00000  Uiso   1.00
C82    C     0.50065   0.48243   0.60081   0.00000  Uiso   1.00
C83    C     0.49885   0.50852   0.69008   0.00000  Uiso   1.00
C84    C     0.56253   0.55132   0.71314   0.00000  Uiso   1.00
C85    C     0.52555   0.52998   0.78879   0.00000  Uiso   1.00
C86    C     0.43565   0.46647   0.66729   0.00000  Uiso   1.00
C87    C     0.46564   0.48816   0.76768   0.00000  Uiso   1.00
C88    C     0.46736   0.48825   0.70918   0.00000  Uiso   1.00
C89    C     0.52812   0.52963   0.73045   0.00000  Uiso   1.00
C90    C     0.49460   0.50880   0.80770   0.00000  Uiso   1.00
H91    H     0.43666   0.44793   0.64095   0.00000  Uiso   1.00
N92    N     0.50024   0.49442   0.33540   0.00000  Uiso   1.00
N93    N     0.50085   0.50717   0.62981   0.00000  Uiso   1.00
H94    H     0.43297   0.48111   0.63907   0.00000  Uiso   1.00
H95    H     0.55368   0.52381   0.17558   0.00000  Uiso   1.00
H96    H     0.44594   0.45814   0.14998   0.00000  Uiso   1.00
H97    H     0.58552   0.54142   0.26603   0.00000  Uiso   1.00
H98    H     0.56536   0.54827   0.32037   0.00000  Uiso   1.00
H99    H     0.56621   0.51306   0.31481   0.00000  Uiso   1.00
H100   H     0.43420   0.47174   0.28867   0.00000  Uiso   1.00
H101   H     0.41467   0.44127   0.22599   0.00000  Uiso   1.00
H102   H     0.43501   0.43657   0.28525   0.00000  Uiso   1.00
O103   O     0.49835   0.44676   0.33261   0.00000  Uiso   1.00
O104   O     0.50195   0.54190   0.33575   0.00000  Uiso   1.00
H105   H     0.50358   0.56660   0.43360   0.00000  Uiso   1.00
H106   H     0.49773   0.43076   0.42915   0.00000  Uiso   1.00
H107   H     0.50399   0.57115   0.53608   0.00000  Uiso   1.00
H108   H     0.58001   0.54715   0.73496   0.00000  Uiso   1.00
H109   H     0.56254   0.54683   0.66679   0.00000  Uiso   1.00
H110   H     0.54813   0.54559   0.81948   0.00000  Uiso   1.00
H111   H     0.49855   0.43552   0.53175   0.00000  Uiso   1.00
H112   H     0.41290   0.45367   0.68894   0.00000  Uiso   1.00
O113   O     0.50031   0.46033   0.62972   0.00000  Uiso   1.00
O114   O     0.50228   0.55458   0.63235   0.00000  Uiso   1.00
H115   H     0.57220   0.57709   0.72583   0.00000  Uiso   1.00
H116   H     0.03516   0.49377   0.19132   0.00000  Uiso   1.00
C117   C     0.99175   0.49655   0.82720   0.00000  Uiso   1.00
C118   C     0.97535   0.50724   0.79729   0.00000  Uiso   1.00
C119   C     0.97563   0.50736   0.73868   0.00000  Uiso   1.00
C120   C     0.99233   0.49638   0.70941   0.00000  Uiso   1.00
C121   C     0.00794   0.48466   0.73879   0.00000  Uiso   1.00
C122   C     0.00756   0.48489   0.79738   0.00000  Uiso   1.00
C123   C     0.95867   0.51974   0.70769   0.00000  Uiso   1.00
C124   C     0.02541   0.47239   0.70794   0.00000  Uiso   1.00
C125   C     0.02125   0.52567   0.63433   0.00000  Uiso   1.00
C126   C     0.02384   0.52826   0.57667   0.00000  Uiso   1.00
C127   C     0.99851   0.50219   0.53536   0.00000  Uiso   1.00
C128   C     0.97128   0.47396   0.55223   0.00000  Uiso   1.00
C129   C     0.96979   0.47249   0.61044   0.00000  Uiso   1.00
C130   C     0.05098   0.55622   0.55940   0.00000  Uiso   1.00
C131   C     0.05279   0.55842   0.50178   0.00000  Uiso   1.00
C132   C     0.02750   0.53271   0.46023   0.00000  Uiso   1.00
C133   C     1.00034   0.50442   0.47707   0.00000  Uiso   1.00
C134   C     0.97494   0.47840   0.43577   0.00000  Uiso   1.00
C135   C     0.94806   0.45024   0.45303   0.00000  Uiso   1.00
C136   C     0.94625   0.44805   0.51067   0.00000  Uiso   1.00
C137   C     0.02856   0.53453   0.40207   0.00000  Uiso   1.00
C138   C     0.97711   0.48132   0.37812   0.00000  Uiso   1.00
C139   C     0.00511   0.51141   0.30315   0.00000  Uiso   1.00
C140   C     0.97062   0.53447   0.30517   0.00000  Uiso   1.00
C141   C     0.98891   0.52305   0.21614   0.00000  Uiso   1.00
C142   C     0.04006   0.48936   0.30259   0.00000  Uiso   1.00
C143   C     0.02237   0.50205   0.21444   0.00000  Uiso   1.00
C144   C     0.02227   0.50132   0.27286   0.00000  Uiso   1.00
C145   C     0.98870   0.52275   0.27470   0.00000  Uiso   1.00
C146   C     0.00542   0.51249   0.18549   0.00000  Uiso   1.00
H147   H     1.02180   0.46795   0.32195   0.00000  Uiso   1.00
N148   N     0.99447   0.49818   0.64999   0.00000  Uiso   1.00
N149   N     1.00356   0.50909   0.36251   0.00000  Uiso   1.00
H150   H     0.06003   0.50888   0.33647   0.00000  Uiso   1.00
H151   H     0.96300   0.51624   0.81977   0.00000  Uiso   1.00
H152   H     0.01998   0.47625   0.81986   0.00000  Uiso   1.00
H153   H     0.94663   0.52738   0.73656   0.00000  Uiso   1.00
H154   H     0.97748   0.54099   0.68857   0.00000  Uiso   1.00
H155   H     0.93890   0.50034   0.67348   0.00000  Uiso   1.00
H156   H     0.04647   0.49222   0.68923   0.00000  Uiso   1.00
H157   H     0.03581   0.46349   0.73683   0.00000  Uiso   1.00
H158   H     0.00731   0.45200   0.67348   0.00000  Uiso   1.00
O159   O     0.94341   0.44526   0.62777   0.00000  Uiso   1.00
O160   O     0.04558   0.55090   0.67524   0.00000  Uiso   1.00
H161   H     0.07085   0.57653   0.59035   0.00000  Uiso   1.00
H162   H     0.92515   0.42604   0.52253   0.00000  Uiso   1.00
H163   H     0.07400   0.58035   0.48993   0.00000  Uiso   1.00
H164   H     0.94370   0.51944   0.28631   0.00000  Uiso   1.00
H165   H     0.97180   0.53319   0.35119   0.00000  Uiso   1.00
H166   H     0.97587   0.53137   0.19451   0.00000  Uiso   1.00
H167   H     0.92830   0.42985   0.42210   0.00000  Uiso   1.00
H168   H     0.05206   0.48210   0.27283   0.00000  Uiso   1.00
O169   O     0.95256   0.45627   0.33721   0.00000  Uiso   1.00
O170   O     0.05469   0.56196   0.38478   0.00000  Uiso   1.00
H171   H     0.98214   0.56016   0.30051   0.00000  Uiso   1.00
H172   H     0.50700   0.95824   0.81606   0.00000  Uiso   1.00
C173   C     0.49231  -0.00763   0.18192   0.00000  Uiso   1.00
C174   C     0.49120   0.01520   0.21766   0.00000  Uiso   1.00
C175   C     0.49030   0.01414   0.27589   0.00000  Uiso   1.00
C176   C     0.48999  -0.01048   0.29863   0.00000  Uiso   1.00
C177   C     0.48976   0.96571   0.26258   0.00000  Uiso   1.00
C178   C     0.49107   0.96743   0.20453   0.00000  Uiso   1.00
C179   C     0.49077   0.03985   0.31385   0.00000  Uiso   1.00
C180   C     0.48868   0.93887   0.28602   0.00000  Uiso   1.00
C181   C     0.46336   0.97608   0.38399   0.00000  Uiso   1.00
C182   C     0.46522   0.97765   0.44323   0.00000  Uiso   1.00
C183   C     0.49695  -0.00670   0.47621   0.00000  Uiso   1.00
C184   C     0.52617   0.00713   0.44969   0.00000  Uiso   1.00
C185   C     0.52309   0.00522   0.39044   0.00000  Uiso   1.00
C186   C     0.43627   0.96417   0.47020   0.00000  Uiso   1.00
C187   C     0.43877   0.96609   0.52919   0.00000  Uiso   1.00
C188   C     0.47026   0.98147   0.56243   0.00000  Uiso   1.00
C189   C     0.49947  -0.00481   0.53586   0.00000  Uiso   1.00
C190   C     0.53122   0.01086   0.56881   0.00000  Uiso   1.00
C191   C     0.56019   0.02451   0.54187   0.00000  Uiso   1.00
C192   C     0.55768   0.02265   0.48291   0.00000  Uiso   1.00
C193   C     0.47339   0.98351   0.62173   0.00000  Uiso   1.00
C194   C     0.53309   0.01241   0.62802   0.00000  Uiso   1.00
C195   C     0.50683   0.00026   0.71373   0.00000  Uiso   1.00
C196   C     0.50990   0.05231   0.72502   0.00000  Uiso   1.00
C197   C     0.50970   0.02586   0.80734   0.00000  Uiso   1.00
C198   C     0.50389   0.94875   0.70158   0.00000  Uiso   1.00
C199   C     0.50766   0.97705   0.79733   0.00000  Uiso   1.00
C200   C     0.50635   0.97599   0.73831   0.00000  Uiso   1.00
C201   C     0.50882   0.02551   0.74865   0.00000  Uiso   1.00
C202   C     0.50900   0.00174   0.83207   0.00000  Uiso   1.00
H203   H     0.52574   0.95874   0.67772   0.00000  Uiso   1.00
N204   N     0.49208  -0.01003   0.35901   0.00000  Uiso   1.00
N205   N     0.50441  -0.00132   0.65308   0.00000  Uiso   1.00
H206   H     0.48033   0.93492   0.67094   0.00000  Uiso   1.00
H207   H     0.49229   0.03461   0.20054   0.00000  Uiso   1.00
H208   H     0.49150   0.94948   0.17701   0.00000  Uiso   1.00
H209   H     0.49140   0.05761   0.28958   0.00000  Uiso   1.00
H210   H     0.46788   0.02840   0.33518   0.00000  Uiso   1.00
H211   H     0.51341   0.05331   0.34656   0.00000  Uiso   1.00
H212   H     0.46579   0.92480   0.30690   0.00000  Uiso   1.00
H213   H     0.48803   0.92187   0.25211   0.00000  Uiso   1.00
H214   H     0.51131   0.94928   0.31762   0.00000  Uiso   1.00
O215   O     0.55137   0.01898   0.36392   0.00000  Uiso   1.00
O216   O     0.43269   0.96085   0.35106   0.00000  Uiso   1.00
H217   H     0.41162   0.95216   0.44584   0.00000  Uiso   1.00
H218   H     0.58050   0.03343   0.46348   0.00000  Uiso   1.00
H219   H     0.41596   0.95551   0.54863   0.00000  Uiso   1.00
H220   H     0.53343   0.07609   0.74424   0.00000  Uiso   1.00
H221   H     0.50919   0.05005   0.67828   0.00000  Uiso   1.00
H222   H     0.51110   0.04526   0.83380   0.00000  Uiso   1.00
H223   H     0.58488   0.03668   0.56620   0.00000  Uiso   1.00
H224   H     0.50365   0.93162   0.72714   0.00000  Uiso   1.00
O225   O     0.56379   0.02774   0.66091   0.00000  Uiso   1.00
O226   O     0.44521   0.97021   0.64843   0.00000  Uiso   1.00
H227   H     0.48802   0.05207   0.73567   0.00000  Uiso   1.00
H228   H     0.05798   0.42912   0.97480   0.00000  Uiso   1.00
C229   C     0.41849   0.50489   0.00204   0.00000  Uiso   1.00
C230   C     0.41236   0.52687   0.02648   0.00000  Uiso   1.00
C231   C     0.37934   0.51760   0.02722   0.00000  Uiso   1.00
C232   C     0.35194   0.48590   0.00226   0.00000  Uiso   1.00
C233   C     0.35794   0.46336   0.97928   0.00000  Uiso   1.00
C234   C     0.39116   0.47298   0.97994   0.00000  Uiso   1.00
C235   C     0.37337   0.54152   0.05425   0.00000  Uiso   1.00
C236   C     0.32913   0.42937   0.95297   0.00000  Uiso   1.00
C237   C     0.30676   0.48494   0.95308   0.00000  Uiso   1.00
C238   C     0.27572   0.48065   0.95096   0.00000  Uiso   1.00
C239   C     0.25625   0.46788  -0.00493   0.00000  Uiso   1.00
C240   C     0.26746   0.45852   0.03929   0.00000  Uiso   1.00
C241   C     0.29885   0.46351   0.03982   0.00000  Uiso   1.00
C242   C     0.26423   0.48976   0.90688   0.00000  Uiso   1.00
C243   C     0.23435   0.48726   0.90764   0.00000  Uiso   1.00
C244   C     0.21531   0.47559   0.95245   0.00000  Uiso   1.00
C245   C     0.22596   0.46532  -0.00420   0.00000  Uiso   1.00
C246   C     0.20697   0.45345   0.04079   0.00000  Uiso   1.00
C247   C     0.21764   0.44287   0.08336   0.00000  Uiso   1.00
C248   C     0.24755   0.44536   0.08262   0.00000  Uiso   1.00
C249   C     0.18645   0.47495   0.95611   0.00000  Uiso   1.00
C250   C     0.17839   0.45353   0.04292   0.00000  Uiso   1.00
C251   C     0.14295   0.46925   0.00838   0.00000  Uiso   1.00
C252   C     0.18688   0.52831   0.05519   0.00000  Uiso   1.00
C253   C     0.12602   0.50496   0.03223   0.00000  Uiso   1.00
C254   C     0.09950   0.41042   0.96420   0.00000  Uiso   1.00
C255   C     0.08395   0.44876   0.99085   0.00000  Uiso   1.00
C256   C     0.10898   0.44340   0.98867   0.00000  Uiso   1.00
C257   C     0.15132   0.50006   0.03148   0.00000  Uiso   1.00
C258   C     0.09239   0.47961   0.01148   0.00000  Uiso   1.00
H259   H     0.10665   0.40060  -0.00318   0.00000  Uiso   1.00
N260   N     0.31814   0.47726  -0.00216   0.00000  Uiso   1.00
N261   N     0.16925   0.46495   0.00169   0.00000  Uiso   1.00
H262   H     0.11279   0.41230   0.92707   0.00000  Uiso   1.00
H263   H     0.43338   0.55133   0.04491   0.00000  Uiso   1.00
H264   H     0.39579   0.45576   0.96184   0.00000  Uiso   1.00
H265   H     0.39729   0.56500   0.07312   0.00000  Uiso   1.00
H266   H     0.36022   0.54621   0.02192   0.00000  Uiso   1.00
H267   H     0.35763   0.53154   0.08856   0.00000  Uiso   1.00
H268   H     0.31525   0.43015   0.91563   0.00000  Uiso   1.00
H269   H     0.33799   0.41442   0.93852   0.00000  Uiso   1.00
H270   H     0.31168   0.41727   0.98432   0.00000  Uiso   1.00
O271   O     0.31075   0.45566   0.08368   0.00000  Uiso   1.00
O272   O     0.32642   0.49806   0.91112   0.00000  Uiso   1.00
H273   H     0.27861   0.49948   0.87224   0.00000  Uiso   1.00
H274   H     0.25532   0.43754   0.11672   0.00000  Uiso   1.00
H275   H     0.22656   0.49509   0.87359   0.00000  Uiso   1.00
H276   H     0.18779   0.53690   0.10032   0.00000  Uiso   1.00
H277   H     0.20504   0.52200   0.05372   0.00000  Uiso   1.00
H278   H     0.13269   0.52879   0.04903   0.00000  Uiso   1.00
H279   H     0.20323   0.43317   0.11794   0.00000  Uiso   1.00
H280   H     0.07201   0.39301   0.94993   0.00000  Uiso   1.00
O281   O     0.16047   0.44344   0.08779   0.00000  Uiso   1.00
O282   O     0.17626   0.48571   0.91498   0.00000  Uiso   1.00
H283   H     0.19518   0.54848   0.03070   0.00000  Uiso   1.00
H284   H     0.60255   0.10346   0.06978   0.00000  Uiso   1.00
C285   C     0.91042   0.41552   0.99522   0.00000  Uiso   1.00
C286   C     0.91689   0.39435   0.96832   0.00000  Uiso   1.00
C287   C     0.89260   0.36055   0.96123   0.00000  Uiso   1.00
C288   C     0.86177   0.34798   0.98272   0.00000  Uiso   1.00
C289   C     0.85596   0.36941   0.01214   0.00000  Uiso   1.00
C290   C     0.88015   0.40295   0.01741   0.00000  Uiso   1.00
C291   C     0.89932   0.33817   0.92981   0.00000  Uiso   1.00
C292   C     0.82407   0.35669   0.03799   0.00000  Uiso   1.00
C293   C     0.83636   0.29415   0.00742   0.00000  Uiso   1.00
C294   C     0.80868   0.26150   0.00333   0.00000  Uiso   1.00
C295   C     0.77983   0.24943   0.96431   0.00000  Uiso   1.00
C296   C     0.77981   0.26944   0.92782   0.00000  Uiso   1.00
C297   C     0.80854   0.30148   0.93187   0.00000  Uiso   1.00
C298   C     0.80866   0.24101   0.03853   0.00000  Uiso   1.00
C299   C     0.78001   0.20926   0.03614   0.00000  Uiso   1.00
C300   C     0.75056   0.19752  -0.00072   0.00000  Uiso   1.00
C301   C     0.75056   0.21764   0.96303   0.00000  Uiso   1.00
C302   C     0.72103   0.20642   0.92676   0.00000  Uiso   1.00
C303   C     0.72154   0.22630   0.88956   0.00000  Uiso   1.00
C304   C     0.75073   0.25736   0.88969   0.00000  Uiso   1.00
C305   C     0.72063   0.16658  -0.00084   0.00000  Uiso   1.00
C306   C     0.69134   0.17606   0.93026   0.00000  Uiso   1.00
C307   C     0.65965   0.12840   0.97582   0.00000  Uiso   1.00
C308   C     0.65362   0.09856   0.87814   0.00000  Uiso   1.00
C309   C     0.60705   0.07580   0.93780   0.00000  Uiso   1.00
C310   C     0.66420   0.15885   0.07128   0.00000  Uiso   1.00
C311   C     0.61347   0.10268   0.03198   0.00000  Uiso   1.00
C312   C     0.64586   0.12908   0.02601   0.00000  Uiso   1.00
C313   C     0.64026   0.10100   0.93211   0.00000  Uiso   1.00
C314   C     0.59373   0.07663   0.98760   0.00000  Uiso   1.00
H315   H     0.67068   0.18037   0.05205   0.00000  Uiso   1.00
N316   N     0.83550   0.31357   0.97278   0.00000  Uiso   1.00
N317   N     0.69140   0.15711   0.96705   0.00000  Uiso   1.00
H318   H     0.68755   0.16310   0.09180   0.00000  Uiso   1.00
H319   H     0.94037   0.40425   0.95120   0.00000  Uiso   1.00
H320   H     0.87545   0.41941   0.03907   0.00000  Uiso   1.00
H321   H     0.92417   0.35182   0.91429   0.00000  Uiso   1.00
H322   H     0.89923   0.32227   0.95836   0.00000  Uiso   1.00
H323   H     0.87956   0.32291   0.89259   0.00000  Uiso   1.00
H324   H     0.82135   0.34043   0.06823   0.00000  Uiso   1.00
H325   H     0.82416   0.37666   0.06154   0.00000  Uiso   1.00
H326   H     0.80193   0.34302   0.00434   0.00000  Uiso   1.00
O327   O     0.80888   0.32133   0.89669   0.00000  Uiso   1.00
O328   O     0.86370   0.30699   0.04804   0.00000  Uiso   1.00
H329   H     0.83062   0.24957   0.06851   0.00000  Uiso   1.00
H330   H     0.75011   0.27218   0.86093   0.00000  Uiso   1.00
H331   H     0.78070   0.19430   0.06445   0.00000  Uiso   1.00
H332   H     0.63999   0.10064   0.84214   0.00000  Uiso   1.00
H333   H     0.68097   0.11771   0.88056   0.00000  Uiso   1.00
H334   H     0.59145   0.05576   0.90312   0.00000  Uiso   1.00
H335   H     0.69929   0.21809   0.86072   0.00000  Uiso   1.00
H336   H     0.64854   0.15632   0.10507   0.00000  Uiso   1.00
O337   O     0.66177   0.16606   0.89853   0.00000  Uiso   1.00
O338   O     0.72035   0.14638   0.03337   0.00000  Uiso   1.00
H339   H     0.64965   0.07471   0.86970   0.00000  Uiso   1.00
H340   H     0.58575   0.51460   0.04361   0.00000  Uiso   1.00
C341   C     0.90624   0.53093   1.00317   0.00000  Uiso   1.00
C342   C     0.90091   0.54358   0.95794   0.00000  Uiso   1.00
C343   C     0.87311   0.54494   0.95239   0.00000  Uiso   1.00
C344   C     0.85118   0.53451   0.99405   0.00000  Uiso   1.00
C345   C     0.85768   0.52333   0.04127   0.00000  Uiso   1.00
C346   C     0.88486   0.52111   0.04478   0.00000  Uiso   1.00
C347   C     0.86599   0.55581   0.90070   0.00000  Uiso   1.00
C348   C     0.83526   0.51294   0.08710   0.00000  Uiso   1.00
C349   C     0.79086   0.50256   0.96816   0.00000  Uiso   1.00
C350   C     0.76032   0.49916   0.96357   0.00000  Uiso   1.00
C351   C     0.76088   0.52713   0.97413   0.00000  Uiso   1.00
C352   C     0.79181   0.55788  -0.00989   0.00000  Uiso   1.00
C353   C     0.82165   0.55988  -0.00293   0.00000  Uiso   1.00
C354   C     0.72934   0.46851   0.94931   0.00000  Uiso   1.00
C355   C     0.69920   0.46562   0.94596   0.00000  Uiso   1.00
C356   C     0.69947   0.49340   0.95554   0.00000  Uiso   1.00
C357   C     0.73042   0.52429   0.96901   0.00000  Uiso   1.00
C358   C     0.73094   0.55230  -0.02241   0.00000  Uiso   1.00
C359   C     0.76197   0.58294  -0.00755   0.00000  Uiso   1.00
C360   C     0.79207   0.58567  -0.00077   0.00000  Uiso   1.00
C361   C     0.66949   0.49106   0.95236   0.00000  Uiso   1.00
C362   C     0.70028   0.54881  -0.02861   0.00000  Uiso   1.00
C363   C     0.63902   0.51512   0.95705   0.00000  Uiso   1.00
C364   C     0.63083   0.50145   0.84942   0.00000  Uiso   1.00
C365   C     0.58625   0.49770   0.90253   0.00000  Uiso   1.00
C366   C     0.64715   0.52682   0.06481   0.00000  Uiso   1.00
C367   C     0.59532   0.51265   0.00477   0.00000  Uiso   1.00
C368   C     0.62717   0.51883   0.00765   0.00000  Uiso   1.00
C369   C     0.61880   0.50548   0.90403   0.00000  Uiso   1.00
C370   C     0.57436   0.50083   0.95281   0.00000  Uiso   1.00
H371   H     0.67175   0.55086   0.06928   0.00000  Uiso   1.00
N372   N     0.82064   0.53244   0.98595   0.00000  Uiso   1.00
N373   N     0.67036   0.51851   0.95994   0.00000  Uiso   1.00
H374   H     0.65152   0.50801   0.06934   0.00000  Uiso   1.00
H375   H     0.91735   0.55067   0.92547   0.00000  Uiso   1.00
H376   H     0.88913   0.51118   0.07949   0.00000  Uiso   1.00
H377   H     0.88448   0.56140   0.87074   0.00000  Uiso   1.00
H378   H     0.84051   0.53629   0.87790   0.00000  Uiso   1.00
H379   H     0.86721   0.57802   0.91349   0.00000  Uiso   1.00
H380   H     0.80972   0.49100   0.06968   0.00000  Uiso   1.00
H381   H     0.84522   0.50700   0.12282   0.00000  Uiso   1.00
H382   H     0.83339   0.53282   0.10426   0.00000  Uiso   1.00
O383   O     0.85185   0.58938   0.01571   0.00000  Uiso   1.00
O384   O     0.79082   0.47568   0.95558   0.00000  Uiso   1.00
H385   H     0.72826   0.44663   0.94144   0.00000  Uiso   1.00
H386   H     0.81552   0.60960   0.01133   0.00000  Uiso   1.00
H387   H     0.67574   0.44159   0.93548   0.00000  Uiso   1.00
H388   H     0.61698   0.50268   0.81253   0.00000  Uiso   1.00
H389   H     0.65801   0.52108   0.85089   0.00000  Uiso   1.00
H390   H     0.56987   0.48845   0.86242   0.00000  Uiso   1.00
H391   H     0.76309   0.60487  -0.00055   0.00000  Uiso   1.00
H392   H     0.63371   0.52759   0.10011   0.00000  Uiso   1.00
O393   O     0.70032   0.57587  -0.02247   0.00000  Uiso   1.00
O394   O     0.63911   0.46103   0.94238   0.00000  Uiso   1.00
H395   H     0.62690   0.47757   0.84279   0.00000  Uiso   1.00
H396   H     0.06916   0.59151   0.92769   0.00000  Uiso   1.00
C397   C     0.41775   0.92258  -0.00657   0.00000  Uiso   1.00
C398   C     0.40630   0.91066   0.04364   0.00000  Uiso   1.00
C399   C     0.37252   0.88516   0.04387   0.00000  Uiso   1.00
C400   C     0.34994   0.87114  -0.00731   0.00000  Uiso   1.00
C401   C     0.36095   0.88466   0.94278   0.00000  Uiso   1.00
C402   C     0.39491   0.91055   0.94367   0.00000  Uiso   1.00
C403   C     0.36113   0.87168   0.09786   0.00000  Uiso   1.00
C404   C     0.33707   0.87033   0.88812   0.00000  Uiso   1.00
C405   C     0.28974   0.83877  -0.00091   0.00000  Uiso   1.00
C406   C     0.25904   0.80863   0.00052   0.00000  Uiso   1.00
C407   C     0.25784   0.78021  -0.00772   0.00000  Uiso   1.00
C408   C     0.28687   0.78220   0.98158   0.00000  Uiso   1.00
C409   C     0.31676   0.81270   0.98008   0.00000  Uiso   1.00
C410   C     0.22978   0.80621   0.01086   0.00000  Uiso   1.00
C411   C     0.19991   0.77606   0.01386   0.00000  Uiso   1.00
C412   C     0.19863   0.74766   0.00663   0.00000  Uiso   1.00
C413   C     0.22767   0.74976  -0.00457   0.00000  Uiso   1.00
C414   C     0.22674   0.72150   0.98789   0.00000  Uiso   1.00
C415   C     0.25579   0.72377   0.97676   0.00000  Uiso   1.00
C416   C     0.28553   0.75380   0.97361   0.00000  Uiso   1.00
C417   C     0.16913   0.71713   0.01072   0.00000  Uiso   1.00
C418   C     0.19673   0.69160   0.99207   0.00000  Uiso   1.00
C419   C     0.13887   0.65889   0.00931   0.00000  Uiso   1.00
C420   C     0.16140   0.66611   0.11305   0.00000  Uiso   1.00
C421   C     0.11036   0.61372   0.06183   0.00000  Uiso   1.00
C422   C     0.11673   0.65193   0.90641   0.00000  Uiso   1.00
C423   C     0.08763   0.60707   0.96474   0.00000  Uiso   1.00
C424   C     0.11403   0.63926   0.96157   0.00000  Uiso   1.00
C425   C     0.13630   0.64621   0.06033   0.00000  Uiso   1.00
C426   C     0.08642   0.59411   1.01412   0.00000  Uiso   1.00
H427   H     0.14056   0.65864   0.89091   0.00000  Uiso   1.00
N428   N     0.31786   0.84024  -0.01034   0.00000  Uiso   1.00
N429   N     0.16880   0.68996   0.00367   0.00000  Uiso   1.00
H430   H     0.11659   0.67369   0.91291   0.00000  Uiso   1.00
H431   H     0.42418   0.92029   0.08207   0.00000  Uiso   1.00
H432   H     0.40398   0.91981   0.90485   0.00000  Uiso   1.00
H433   H     0.38178   0.88550   0.13423   0.00000  Uiso   1.00
H434   H     0.34015   0.87301   0.10846   0.00000  Uiso   1.00
H435   H     0.35235   0.84597   0.09240   0.00000  Uiso   1.00
H436   H     0.31557   0.87168   0.89380   0.00000  Uiso   1.00
H437   H     0.34955   0.88356   0.85296   0.00000  Uiso   1.00
H438   H     0.32742   0.84453   0.87572   0.00000  Uiso   1.00
O439   O     0.34536   0.81502   0.97027   0.00000  Uiso   1.00
O440   O     0.29170   0.86683   0.00826   0.00000  Uiso   1.00
H441   H     0.22993   0.82761   0.01711   0.00000  Uiso   1.00
H442   H     0.30755   0.75473   0.96544   0.00000  Uiso   1.00
H443   H     0.17790   0.77510   0.02222   0.00000  Uiso   1.00
H444   H     0.17497   0.65539   0.12360   0.00000  Uiso   1.00
H445   H     0.18016   0.69176   0.10832   0.00000  Uiso   1.00
H446   H     0.10924   0.60346   0.09997   0.00000  Uiso   1.00
H447   H     0.25571   0.70240   0.97080   0.00000  Uiso   1.00
H448   H     0.09545   0.63349   0.87308   0.00000  Uiso   1.00
O449   O     0.19546   0.66385   0.98492   0.00000  Uiso   1.00
O450   O     0.14071   0.71461   0.02250   0.00000  Uiso   1.00
H451   H     0.14797   0.66598   0.14902   0.00000  Uiso   1.00
H452   H     0.54359   0.62936   0.10959   0.00000  Uiso   1.00
C453   C     0.53930   0.91706   1.00435   0.00000  Uiso   1.00
C454   C     0.53839   0.90081   0.95276   0.00000  Uiso   1.00
C455   C     0.54442   0.87701   0.95188   0.00000  Uiso   1.00
C456   C     0.55037   0.86872   1.00363   0.00000  Uiso   1.00
C457   C     0.55140   0.88528   0.05578   0.00000  Uiso   1.00
C458   C     0.54620   0.90960   0.05559   0.00000  Uiso   1.00
C459   C     0.54464   0.86069   0.89595   0.00000  Uiso   1.00
C460   C     0.55728   0.87663   0.11143   0.00000  Uiso   1.00
C461   C     0.58457   0.84859   1.01449   0.00000  Uiso   1.00
C462   C     0.58776   0.82302   1.01722   0.00000  Uiso   1.00
C463   C     0.55856   0.79082   1.00652   0.00000  Uiso   1.00
C464   C     0.52681   0.78466   0.99338   0.00000  Uiso   1.00
C465   C     0.52479   0.81100   0.99278   0.00000  Uiso   1.00
C466   C     0.61927   0.82886   1.03081   0.00000  Uiso   1.00
C467   C     0.62170   0.80308   1.03457   0.00000  Uiso   1.00
C468   C     0.59271   0.77088   1.02420   0.00000  Uiso   1.00
C469   C     0.56107   0.76472   1.00946   0.00000  Uiso   1.00
C470   C     0.53189   0.73252   0.99800   0.00000  Uiso   1.00
C471   C     0.50042   0.72663   0.98366   0.00000  Uiso   1.00
C472   C     0.49789   0.75243   0.98170   0.00000  Uiso   1.00
C473   C     0.59443   0.74457   1.02865   0.00000  Uiso   1.00
C474   C     0.53494   0.70702   1.00172   0.00000  Uiso   1.00
C475   C     0.56761   0.68669   1.02383   0.00000  Uiso   1.00
C476   C     0.58493   0.68713   0.92464   0.00000  Uiso   1.00
C477   C     0.57181   0.64388   0.98179   0.00000  Uiso   1.00
C478   C     0.55137   0.68687   0.12282   0.00000  Uiso   1.00
C479   C     0.55357   0.64222   0.07416   0.00000  Uiso   1.00
C480   C     0.55827   0.67197   0.07303   0.00000  Uiso   1.00
C481   C     0.57531   0.67294   0.97853   0.00000  Uiso   1.00
C482   C     0.55935   0.62772   1.02805   0.00000  Uiso   1.00
H483   H     0.52922   0.68685   0.11029   0.00000  Uiso   1.00
N484   N     0.55341   0.84221   1.00321   0.00000  Uiso   1.00
N485   N     0.56576   0.71344   1.01781   0.00000  Uiso   1.00
H486   H     0.57360   0.71226   0.13763   0.00000  Uiso   1.00
H487   H     0.53307   0.90682   0.91328   0.00000  Uiso   1.00
H488   H     0.54660   0.92219   0.09534   0.00000  Uiso   1.00
H489   H     0.54038   0.87049   0.85963   0.00000  Uiso   1.00
H490   H     0.56941   0.86472   0.89532   0.00000  Uiso   1.00
H491   H     0.52452   0.83421   0.88981   0.00000  Uiso   1.00
H492   H     0.58292   0.88243   0.11752   0.00000  Uiso   1.00
H493   H     0.55515   0.89036   0.14795   0.00000  Uiso   1.00
H494   H     0.53837   0.85030   0.11164   0.00000  Uiso   1.00
O495   O     0.49389   0.80541   0.98228   0.00000  Uiso   1.00
O496   O     0.61280   0.88010   1.02380   0.00000  Uiso   1.00
H497   H     0.64213   0.85338   1.03916   0.00000  Uiso   1.00
H498   H     0.47321   0.74704   0.97104   0.00000  Uiso   1.00
H499   H     0.64633   0.80846   1.04565   0.00000  Uiso   1.00
H500   H     0.56792   0.66820   0.88748   0.00000  Uiso   1.00
H501   H     0.58317   0.70775   0.92320   0.00000  Uiso   1.00
H502   H     0.57573   0.63233   0.94566   0.00000  Uiso   1.00
H503   H     0.47761   0.70209   0.97443   0.00000  Uiso   1.00
H504   H     0.54608   0.67329   0.15900   0.00000  Uiso   1.00
O505   O     0.50678   0.67546   0.98997   0.00000  Uiso   1.00
O506   O     0.62490   0.75007   0.04426   0.00000  Uiso   1.00
H507   H     0.61117   0.69569   0.92063   0.00000  Uiso   1.00
H508   H     0.51336   0.11935   0.09990   0.00000  Uiso   1.00
C509   C     0.47003   0.38734   0.01570   0.00000  Uiso   1.00
C510   C     0.45194   0.35840   0.97678   0.00000  Uiso   1.00
C511   C     0.44921   0.33088   0.98922   0.00000  Uiso   1.00
C512   C     0.46607   0.33260   0.04082   0.00000  Uiso   1.00
C513   C     0.48343   0.36142   0.08132   0.00000  Uiso   1.00
C514   C     0.48495   0.38857   0.06859   0.00000  Uiso   1.00
C515   C     0.42859   0.29983   0.94702   0.00000  Uiso   1.00
C516   C     0.50069   0.36347   0.13734   0.00000  Uiso   1.00
C517   C     0.49186   0.30478   1.02178   0.00000  Uiso   1.00
C518   C     0.49118   0.27680   1.01825   0.00000  Uiso   1.00
C519   C     0.46722   0.25087   0.04428   0.00000  Uiso   1.00
C520   C     0.44458   0.25343   0.07383   0.00000  Uiso   1.00
C521   C     0.44565   0.28169   0.07505   0.00000  Uiso   1.00
C522   C     0.51322   0.27383   0.98792   0.00000  Uiso   1.00
C523   C     0.51144   0.24539   0.98323   0.00000  Uiso   1.00
C524   C     0.48782   0.21943   1.00937   0.00000  Uiso   1.00
C525   C     0.46572   0.22221   1.04021   0.00000  Uiso   1.00
C526   C     0.44210   0.19637   0.06685   0.00000  Uiso   1.00
C527   C     0.41983   0.19927   0.09669   0.00000  Uiso   1.00
C528   C     0.42094   0.22741   0.09992   0.00000  Uiso   1.00
C529   C     0.48601   0.19084   1.00604   0.00000  Uiso   1.00
C530   C     0.44169   0.16843   0.06337   0.00000  Uiso   1.00
C531   C     0.46517   0.13891   0.03444   0.00000  Uiso   1.00
C532   C     0.41848   0.10633   0.94957   0.00000  Uiso   1.00
C533   C     0.44941   0.08580   0.99095   0.00000  Uiso   1.00
C534   C     0.51081   0.17093   0.11957   0.00000  Uiso   1.00
C535   C     0.49413   0.11686   0.07032   0.00000  Uiso   1.00
C536   C     0.48944   0.14155   0.07401   0.00000  Uiso   1.00
C537   C     0.44471   0.11059   0.99304   0.00000  Uiso   1.00
C538   C     0.47459   0.08916   0.02854   0.00000  Uiso   1.00
H539   H     0.49437   0.17318   0.14665   0.00000  Uiso   1.00
N540   N     0.46864   0.30635   0.04823   0.00000  Uiso   1.00
N541   N     0.46368   0.16631   1.03376   0.00000  Uiso   1.00
H542   H     0.52586   0.19314   0.09997   0.00000  Uiso   1.00
H543   H     0.43990   0.35737   0.93631   0.00000  Uiso   1.00
H544   H     0.49880   0.41095   0.09886   0.00000  Uiso   1.00
H545   H     0.41724   0.30270   0.90868   0.00000  Uiso   1.00
H546   H     0.44452   0.29217   0.93303   0.00000  Uiso   1.00
H547   H     0.40789   0.28042   0.96699   0.00000  Uiso   1.00
H548   H     0.51893   0.35762   0.13021   0.00000  Uiso   1.00
H549   H     0.51463   0.38817   0.16287   0.00000  Uiso   1.00
H550   H     0.48163   0.34598   0.16219   0.00000  Uiso   1.00
O551   O     0.42274   0.28397   0.10123   0.00000  Uiso   1.00
O552   O     0.51486   0.33006   0.99588   0.00000  Uiso   1.00
H553   H     0.53170   0.29334   0.96715   0.00000  Uiso   1.00
H554   H     0.40320   0.22869   0.12281   0.00000  Uiso   1.00
H555   H     0.52872   0.24390   0.95928   0.00000  Uiso   1.00
H556   H     0.39348   0.08407   0.95341   0.00000  Uiso   1.00
H557   H     0.41672   0.12713   0.95463   0.00000  Uiso   1.00
H558   H     0.43427   0.06445   0.95849   0.00000  Uiso   1.00
H559   H     0.40138   0.17974   0.11747   0.00000  Uiso   1.00
H560   H     0.52852   0.16922   0.14725   0.00000  Uiso   1.00
O561   O     0.41951   0.14339   0.09047   0.00000  Uiso   1.00
O562   O     0.50739   0.18781   0.97602   0.00000  Uiso   1.00
H563   H     0.42471   0.10368   0.90634   0.00000  Uiso   1.00
loop_
_geom_bond_atom_site_label_1
_geom_bond_atom_site_label_2
_geom_bond_distance
_geom_bond_site_symmetry_2
_ccdc_geom_bond_type
O0     C6      1.299   .     A
O0     Yb3     2.176   1_556 S
Yb1    O4      2.166   .     S
Yb1    O9      2.212   .     S
Yb1    O17     2.114   .     S
Yb1    O19     2.125   .     S
Yb1    Yb3     2.964   1_556 S
Yb1    O10     2.198   1_556 S
Yb1    O11     2.259   1_556 S
Yb1    O16     2.154   1_556 S
C2     O16     1.297   .     A
C2     C509    1.470   .     S
C2     O17     1.280   1_554 A
Yb3    O10     2.108   .     S
Yb3    O12     2.150   .     S
Yb3    O13     2.137   .     S
Yb3    O18     2.164   .     S
Yb3    O0      2.176   1_554 S
Yb3    Yb1     2.964   1_554 S
Yb3    O7      2.129   1_554 S
Yb3    O19     2.140   1_554 S
O4     C6      1.296   .     A
C5     O18     1.232   .     D
C5     C229    1.474   .     S
C5     O19     1.393   1_554 S
C6     C90     1.479   .     S
O7     C8      1.281   .     A
O7     Yb3     2.129   1_556 S
C8     C482    1.462   .     S
C8     O12     1.280   1_556 A
O9     C14     1.204   .     D
O10    Yb1     2.198   1_554 S
O10    C14     1.352   1_554 S
O11    C15     1.320   .     A
O11    Yb1     2.259   1_554 S
O12    C8      1.280   1_554 A
O13    C15     1.299   .     A
C14    C370    1.465   .     S
C14    O10     1.352   1_556 S
C15    C61     1.472   .     S
O16    Yb1     2.154   1_554 S
O17    C2      1.280   1_556 A
O19    Yb3     2.140   1_556 S
O19    C5      1.393   1_556 S
O20    Yb23    2.160   .     S
O20    C26     1.305   1_655 A
Yb21   O30     2.166   .     S
Yb21   O31     2.155   .     S
Yb21   O36     2.147   .     S
Yb21   Yb23    2.833   1_454 S
Yb21   O24     2.159   1_554 S
Yb21   O29     2.151   1_554 S
Yb21   O37     2.145   1_554 S
Yb21   O39     2.122   1_454 S
C22    O36     1.283   .     A
C22    C258    1.476   .     S
C22    O37     1.279   1_554 A
Yb23   O27     2.141   .     S
Yb23   O39     2.169   .     S
Yb23   Yb21    2.833   1_656 S
Yb23   O30     2.112   1_656 S
Yb23   O32     2.143   1_556 S
Yb23   O33     2.162   1_556 S
Yb23   O38     2.146   1_556 S
O24    C26     1.305   .     A
O24    Yb21    2.159   1_556 S
C25    O38     1.229   .     D
C25    O39     1.396   1_554 S
C25    C285    1.469   1_554 S
C26    O20     1.305   1_455 A
C26    C117    1.479   1_455 S
O27    C28     1.282   .     A
C28    C341    1.462   .     S
C28    O32     1.277   1_556 A
O29    Yb21    2.151   1_556 S
O29    C34     1.228   1_556 D
O30    C34     1.392   .     S
O30    Yb23    2.112   1_454 S
O31    C35     1.303   .     A
O32    Yb23    2.143   1_554 S
O32    C28     1.277   1_554 A
O33    Yb23    2.162   1_554 S
O33    C35     1.304   1_655 A
C34    O29     1.228   1_554 D
C34    C426    1.460   1_554 S
C35    C146    1.480   .     S
C35    O33     1.304   1_455 A
O37    Yb21    2.145   1_556 S
O37    C22     1.279   1_556 A
O38    Yb23    2.146   1_554 S
O39    Yb21    2.122   1_656 S
O39    C25     1.396   1_556 S
O40    C46     1.301   .     A
O40    Yb43    2.149   1_554 S
Yb41   O44     2.170   .     S
Yb41   O49     2.160   .     S
Yb41   O57     2.137   .     S
Yb41   Yb43    2.919   1_564 S
Yb41   O50     2.096   1_554 S
Yb41   O51     2.171   1_554 S
Yb41   O56     2.145   1_554 S
Yb41   O59     2.158   1_565 S
C42    O56     1.281   .     A
C42    C453    1.465   .     S
C42    O57     1.277   1_556 A
Yb43   O52     2.141   .     S
Yb43   O53     2.245   .     S
Yb43   O58     2.172   .     S
Yb43   O40     2.149   1_556 S
Yb43   Yb41    2.919   1_546 S
Yb43   O47     2.113   1_556 S
Yb43   O50     2.120   1_545 S
Yb43   O59     2.164   1_556 S
O44    C46     1.303   1_565 A
C45    O59     1.386   .     S
C45    O58     1.228   1_554 D
C45    C314    1.464   1_554 S
C46    C173    1.475   .     S
C46    O44     1.303   1_545 A
O47    C48     1.277   .     A
O47    Yb43    2.113   1_554 S
C48    C538    1.476   .     S
C48    O52     1.283   1_554 A
O49    C54     1.227   .     D
O50    Yb41    2.096   1_556 S
O50    Yb43    2.120   1_565 S
O50    C54     1.387   1_556 S
O51    Yb41    2.171   1_556 S
O51    C55     1.308   1_565 A
O52    C48     1.283   1_556 A
O53    C55     1.326   .     A
C54    C397    1.464   .     S
C54    O50     1.387   1_554 S
C55    C202    1.476   .     S
C55    O51     1.308   1_545 A
O56    Yb41    2.145   1_556 S
O57    C42     1.277   1_554 A
O58    C45     1.228   1_556 D
O59    Yb41    2.158   1_545 S
O59    Yb43    2.164   1_554 S
H60    C87     1.084   .     S
C61    C62     1.401   .     A
C61    C66     1.399   .     A
C62    C63     1.406   .     A
C62    H95     1.084   .     S
C63    C64     1.413   .     A
C63    C67     1.505   .     S
C64    C65     1.414   .     A
C64    N92     1.445   .     S
C65    C66     1.406   .     A
C65    C68     1.504   .     S
C66    H96     1.084   .     S
C67    H97     1.111   .     S
C67    H98     1.110   .     S
C67    H99     1.111   .     S
C68    H100    1.111   .     S
C68    H101    1.111   .     S
C68    H102    1.110   .     S
C69    C70     1.408   .     A
C69    N92     1.372   .     A
C69    O104    1.373   .     S
C70    C71     1.408   .     A
C70    C74     1.406   .     A
C71    C72     1.409   .     A
C71    C77     1.417   .     A
C72    C73     1.409   .     A
C72    C80     1.406   .     A
C73    N92     1.371   .     A
C73    O103    1.373   .     S
C74    C75     1.399   .     A
C74    H105    1.083   .     S
C75    C76     1.406   .     A
C75    H107    1.083   .     S
C76    C77     1.409   .     A
C76    C81     1.409   .     A
C77    C78     1.408   .     A
C78    C79     1.407   .     A
C78    C82     1.409   .     A
C79    C80     1.399   .     A
C79    H111    1.083   .     S
C80    H106    1.083   .     S
C81    N93     1.372   .     A
C81    O114    1.373   .     S
C82    N93     1.372   .     A
C82    O113    1.373   .     S
C83    C88     1.415   .     A
C83    C89     1.417   .     A
C83    N93     1.447   .     S
C84    C89     1.506   .     S
C84    H108    1.111   .     S
C84    H109    1.108   .     S
C84    H115    1.110   .     S
C85    C89     1.406   .     A
C85    C90     1.402   .     A
C85    H110    1.084   .     S
C86    C88     1.506   .     S
C86    H91     1.110   .     S
C86    H94     1.111   .     S
C86    H112    1.111   .     S
C87    C88     1.406   .     A
C87    C90     1.402   .     A
H116   C143    1.083   .     S
C117   C118    1.405   .     A
C117   C122    1.404   1_655 A
C117   C26     1.479   1_655 S
C118   C119    1.402   .     A
C118   H151    1.083   .     S
C119   C120    1.410   .     A
C119   C123    1.505   .     S
C120   N148    1.438   .     S
C120   C121    1.409   1_655 A
C121   C122    1.401   .     A
C121   C124    1.505   .     S
C121   C120    1.409   1_455 A
C122   H152    1.083   .     S
C122   C117    1.404   1_455 A
C123   H153    1.111   .     S
C123   H154    1.110   .     S
C123   H155    1.110   .     S
C124   H156    1.110   .     S
C124   H157    1.110   .     S
C124   H158    1.110   .     S
C125   C126    1.403   .     A
C125   O160    1.373   .     S
C125   N148    1.369   1_455 A
C126   C130    1.405   .     A
C126   C127    1.409   1_455 A
C127   C128    1.409   .     A
C127   C133    1.413   .     A
C127   C126    1.409   1_655 A
C128   C129    1.404   .     A
C128   C136    1.405   .     A
C129   N148    1.369   .     A
C129   O159    1.373   .     S
C130   C131    1.396   .     A
C130   H161    1.083   .     S
C131   C132    1.405   .     A
C131   H163    1.083   .     S
C132   C137    1.404   .     A
C132   C133    1.409   1_455 A
C133   C134    1.409   .     A
C133   C132    1.409   1_655 A
C134   C135    1.405   .     A
C134   C138    1.404   .     A
C135   C136    1.397   .     A
C135   H167    1.083   .     S
C136   H162    1.083   .     S
C137   O170    1.373   .     S
C137   N149    1.369   1_455 A
C138   N149    1.370   .     A
C138   O169    1.373   .     S
C139   C144    1.410   .     A
C139   C145    1.414   1_455 A
C139   N149    1.438   1_455 S
C140   C145    1.507   .     S
C140   H164    1.110   .     S
C140   H165    1.109   .     S
C140   H171    1.111   .     S
C141   C145    1.402   .     A
C141   H166    1.084   .     S
C141   C146    1.404   1_655 A
C142   C144    1.506   .     S
C142   H150    1.110   .     S
C142   H168    1.111   .     S
C142   H147    1.110   1_455 S
C143   C144    1.401   .     A
C143   C146    1.404   .     A
C145   C139    1.414   1_655 A
C146   C141    1.404   1_455 A
H147   C142    1.110   1_655 S
N148   C125    1.369   1_655 A
N149   C137    1.369   1_655 A
N149   C139    1.438   1_655 S
H172   C199    1.084   .     S
C173   C174    1.403   .     A
C173   C178    1.403   1_545 A
C174   C175    1.400   .     A
C174   H207    1.083   .     S
C175   C176    1.411   .     A
C175   C179    1.506   .     S
C176   N204    1.438   .     S
C176   C177    1.411   1_545 A
C177   C178    1.402   .     A
C177   C180    1.505   .     S
C177   C176    1.411   1_565 A
C178   H208    1.083   .     S
C178   C173    1.403   1_565 A
C179   H209    1.111   .     S
C179   H210    1.110   .     S
C179   H211    1.110   .     S
C180   H212    1.110   .     S
C180   H213    1.111   .     S
C180   H214    1.110   .     S
C181   C182    1.405   .     A
C181   O216    1.373   .     S
C181   N204    1.369   1_565 A
C182   C186    1.405   .     A
C182   C183    1.409   1_565 A
C183   C184    1.408   .     A
C183   C189    1.413   .     A
C183   C182    1.409   1_545 A
C184   C185    1.403   .     A
C184   C192    1.405   .     A
C185   N204    1.370   .     A
C185   O215    1.373   .     S
C186   C187    1.397   .     A
C186   H217    1.083   .     S
C187   C188    1.405   .     A
C187   H219    1.083   .     S
C188   C193    1.404   .     A
C188   C189    1.409   1_565 A
C189   C190    1.409   .     A
C189   C188    1.409   1_545 A
C190   C191    1.405   .     A
C190   C194    1.404   .     A
C191   C192    1.396   .     A
C191   H223    1.083   .     S
C192   H218    1.083   .     S
C193   O226    1.373   .     S
C193   N205    1.370   1_565 A
C194   N205    1.369   .     A
C194   O225    1.373   .     S
C195   C201    1.413   .     A
C195   N205    1.438   .     S
C195   C200    1.412   1_545 A
C196   C201    1.506   .     S
C196   H220    1.110   .     S
C196   H221    1.108   .     S
C196   H227    1.110   .     S
C197   C201    1.399   .     A
C197   C202    1.402   .     A
C197   H222    1.084   .     S
C198   C200    1.506   .     S
C198   H203    1.110   .     S
C198   H206    1.110   .     S
C198   H224    1.111   .     S
C199   C200    1.403   .     A
C199   C202    1.403   1_565 A
C200   C195    1.412   1_565 A
C202   C199    1.403   1_545 A
N204   C181    1.369   1_545 A
N205   C193    1.370   1_545 A
H228   C255    1.083   .     S
C229   C230    1.402   .     A
C229   C234    1.401   1_554 A
C230   C231    1.404   .     A
C230   H263    1.083   .     S
C231   C232    1.412   .     A
C231   C235    1.505   .     S
C232   N260    1.444   .     S
C232   C233    1.411   1_554 A
C233   C234    1.404   .     A
C233   C236    1.504   .     S
C233   C232    1.411   1_556 A
C234   H264    1.084   .     S
C234   C229    1.401   1_556 A
C235   H265    1.109   .     S
C235   H266    1.108   .     S
C235   H267    1.110   .     S
C236   H268    1.109   .     S
C236   H269    1.111   .     S
C236   H270    1.110   .     S
C237   C238    1.405   .     A
C237   O272    1.373   .     S
C237   N260    1.370   1_556 A
C238   C242    1.406   .     A
C238   C239    1.409   1_556 A
C239   C240    1.409   .     A
C239   C245    1.416   .     A
C239   C238    1.409   1_554 A
C240   C241    1.408   .     A
C240   C248    1.406   .     A
C241   N260    1.371   .     A
C241   O271    1.372   .     S
C242   C243    1.398   .     A
C242   H273    1.084   .     S
C243   C244    1.405   .     A
C243   H275    1.083   .     S
C244   C249    1.405   .     A
C244   C245    1.408   1_556 A
C245   C246    1.409   .     A
C245   C244    1.408   1_554 A
C246   C247    1.406   .     A
C246   C250    1.408   .     A
C247   C248    1.399   .     A
C247   H279    1.083   .     S
C248   H274    1.084   .     S
C249   O282    1.373   .     S
C249   N261    1.371   1_556 A
C250   N261    1.371   .     A
C250   O281    1.373   .     S
C251   C257    1.415   .     A
C251   N261    1.442   .     S
C251   C256    1.413   1_554 A
C252   C257    1.508   .     S
C252   H276    1.111   .     S
C252   H277    1.109   .     S
C252   H283    1.111   .     S
C253   C257    1.400   .     A
C253   C258    1.402   .     A
C253   H278    1.084   .     S
C254   C256    1.504   .     S
C254   H262    1.110   .     S
C254   H280    1.111   .     S
C254   H259    1.110   1_556 S
C255   C256    1.405   .     A
C255   C258    1.401   1_556 A
C256   C251    1.413   1_556 A
C258   C255    1.401   1_554 A
H259   C254    1.110   1_554 S
N260   C237    1.370   1_554 A
N261   C249    1.371   1_554 A
H284   C311    1.085   .     S
C285   C286    1.400   .     A
C285   C290    1.399   1_556 A
C285   C25     1.469   1_556 S
C286   C287    1.406   .     A
C286   H319    1.084   .     S
C287   C288    1.414   .     A
C287   C291    1.505   .     S
C288   N316    1.442   .     S
C288   C289    1.413   1_556 A
C289   C290    1.399   .     A
C289   C292    1.507   .     S
C289   C288    1.413   1_554 A
C290   H320    1.084   .     S
C290   C285    1.399   1_554 A
C291   H321    1.111   .     S
C291   H322    1.110   .     S
C291   H323    1.110   .     S
C292   H324    1.110   .     S
C292   H325    1.111   .     S
C292   H326    1.109   .     S
C293   C294    1.407   .     A
C293   O328    1.373   .     S
C293   N316    1.370   1_554 A
C294   C298    1.406   .     A
C294   C295    1.409   1_554 A
C295   C296    1.408   .     A
C295   C301    1.414   .     A
C295   C294    1.409   1_556 A
C296   C297    1.404   .     A
C296   C304    1.405   .     A
C297   N316    1.371   .     A
C297   O327    1.374   .     S
C298   C299    1.399   .     A
C298   H329    1.083   .     S
C299   C300    1.406   .     A
C299   H331    1.083   .     S
C300   C305    1.407   .     A
C300   C301    1.408   1_554 A
C301   C302    1.408   .     A
C301   C300    1.408   1_556 A
C302   C303    1.405   .     A
C302   C306    1.405   .     A
C303   C304    1.396   .     A
C303   H335    1.083   .     S
C304   H330    1.083   .     S
C305   O338    1.373   .     S
C305   N317    1.372   1_554 A
C306   N317    1.372   .     A
C306   O337    1.373   .     S
C307   C313    1.420   .     A
C307   N317    1.446   .     S
C307   C312    1.417   1_556 A
C308   C313    1.505   .     S
C308   H332    1.111   .     S
C308   H333    1.109   .     S
C308   H339    1.111   .     S
C309   C313    1.406   .     A
C309   C314    1.398   .     A
C309   H334    1.085   .     S
C310   C312    1.509   .     S
C310   H315    1.111   .     S
C310   H318    1.108   .     S
C310   H336    1.111   .     S
C311   C312    1.400   .     A
C311   C314    1.396   1_554 A
C312   C307    1.417   1_554 A
C314   C311    1.396   1_556 A
C314   C45     1.464   1_556 S
N316   C293    1.370   1_556 A
N317   C305    1.372   1_556 A
H340   C367    1.084   .     S
C341   C342    1.398   .     A
C341   C346    1.397   1_556 A
C342   C343    1.404   .     A
C342   H375    1.084   .     S
C343   C344    1.414   .     A
C343   C347    1.506   .     S
C344   N372    1.440   .     S
C344   C345    1.414   1_556 A
C345   C346    1.400   .     A
C345   C348    1.507   .     S
C345   C344    1.414   1_554 A
C346   H376    1.084   .     S
C346   C341    1.397   1_554 A
C347   H377    1.111   .     S
C347   H378    1.111   .     S
C347   H379    1.109   .     S
C348   H380    1.109   .     S
C348   H381    1.111   .     S
C348   H382    1.111   .     S
C349   C350    1.401   .     A
C349   N372    1.370   .     A
C349   O384    1.374   .     S
C350   C351    1.408   .     A
C350   C354    1.404   .     A
C351   C357    1.412   .     A
C351   C352    1.409   1_556 A
C352   C353    1.406   .     A
C352   C360    1.406   .     A
C352   C351    1.409   1_554 A
C353   O383    1.373   .     S
C353   N372    1.370   1_554 A
C354   C355    1.395   .     A
C354   H385    1.083   .     S
C355   C356    1.405   .     A
C355   H387    1.083   .     S
C356   C357    1.408   .     A
C356   C361    1.402   .     A
C357   C358    1.408   1_556 A
C358   C359    1.406   .     A
C358   C362    1.406   .     A
C358   C357    1.408   1_554 A
C359   C360    1.399   .     A
C359   H391    1.083   .     S
C360   H386    1.083   .     S
C361   N373    1.370   .     A
C361   O394    1.373   .     S
C362   O393    1.373   .     S
C362   N373    1.371   1_554 A
C363   C369    1.415   .     A
C363   N373    1.441   .     S
C363   C368    1.413   1_556 A
C364   C369    1.505   .     S
C364   H388    1.111   .     S
C364   H389    1.111   .     S
C364   H395    1.111   .     S
C365   C369    1.403   .     A
C365   C370    1.399   .     A
C365   H390    1.083   .     S
C366   C368    1.507   .     S
C366   H371    1.109   .     S
C366   H374    1.111   .     S
C366   H392    1.110   .     S
C367   C368    1.400   .     A
C367   C370    1.398   1_554 A
C368   C363    1.413   1_554 A
C370   C367    1.398   1_556 A
N372   C353    1.370   1_556 A
N373   C362    1.371   1_556 A
H396   C423    1.084   .     S
C397   C398    1.398   .     A
C397   C402    1.399   1_554 A
C398   C399    1.400   .     A
C398   H431    1.085   .     S
C399   C400    1.412   .     A
C399   C403    1.506   .     S
C400   N428    1.442   .     S
C400   C401    1.414   1_554 A
C401   C402    1.407   .     A
C401   C404    1.504   .     S
C401   C400    1.414   1_556 A
C402   H432    1.084   .     S
C402   C397    1.399   1_556 A
C403   H433    1.111   .     S
C403   H434    1.110   .     S
C403   H435    1.110   .     S
C404   H436    1.110   .     S
C404   H437    1.111   .     S
C404   H438    1.110   .     S
C405   C406    1.410   .     A
C405   N428    1.370   .     A
C405   O440    1.372   .     S
C406   C407    1.410   .     A
C406   C410    1.407   .     A
C407   C413    1.415   .     A
C407   C408    1.408   1_554 A
C408   C409    1.402   .     A
C408   C416    1.405   .     A
C408   C407    1.408   1_556 A
C409   O439    1.374   .     S
C409   N428    1.370   1_556 A
C410   C411    1.400   .     A
C410   H441    1.083   .     S
C411   C412    1.406   .     A
C411   H443    1.083   .     S
C412   C413    1.409   .     A
C412   C417    1.409   .     A
C413   C414    1.409   1_554 A
C414   C415    1.405   .     A
C414   C418    1.403   .     A
C414   C413    1.409   1_556 A
C415   C416    1.395   .     A
C415   H447    1.083   .     S
C416   H442    1.083   .     S
C417   N429    1.370   .     A
C417   O450    1.373   .     S
C418   O449    1.374   .     S
C418   N429    1.370   1_556 A
C419   C425    1.415   .     A
C419   N429    1.441   .     S
C419   C424    1.414   1_554 A
C420   C425    1.505   .     S
C420   H444    1.110   .     S
C420   H445    1.108   .     S
C420   H451    1.110   .     S
C421   C425    1.400   .     A
C421   H446    1.084   .     S
C421   C426    1.396   1_554 A
C422   C424    1.505   .     S
C422   H427    1.111   .     S
C422   H430    1.110   .     S
C422   H448    1.111   .     S
C423   C424    1.404   .     A
C423   C426    1.398   .     A
C424   C419    1.414   1_556 A
C426   C421    1.396   1_556 A
C426   C34     1.460   1_556 S
N428   C409    1.370   1_554 A
N429   C418    1.370   1_554 A
H452   C479    1.085   .     S
C453   C454    1.398   .     A
C453   C458    1.398   1_556 A
C454   C455    1.404   .     A
C454   H487    1.084   .     S
C455   C456    1.414   .     A
C455   C459    1.506   .     S
C456   N484    1.443   .     S
C456   C457    1.415   1_556 A
C457   C458    1.404   .     A
C457   C460    1.506   .     S
C457   C456    1.415   1_554 A
C458   H488    1.084   .     S
C458   C453    1.398   1_554 A
C459   H489    1.111   .     S
C459   H490    1.111   .     S
C459   H491    1.110   .     S
C460   H492    1.110   .     S
C460   H493    1.111   .     S
C460   H494    1.111   .     S
C461   C462    1.407   .     A
C461   N484    1.371   .     A
C461   O496    1.373   .     S
C462   C463    1.409   .     A
C462   C466    1.406   .     A
C463   C464    1.409   .     A
C463   C469    1.414   .     A
C464   C465    1.405   .     A
C464   C472    1.405   .     A
C465   N484    1.371   .     A
C465   O495    1.374   .     S
C466   C467    1.398   .     A
C466   H497    1.083   .     S
C467   C468    1.405   .     A
C467   H499    1.083   .     S
C468   C469    1.410   .     A
C468   C473    1.406   .     A
C469   C470    1.408   .     A
C470   C471    1.405   .     A
C470   C474    1.403   .     A
C471   C472    1.397   .     A
C471   H503    1.083   .     S
C472   H498    1.083   .     S
C473   N485    1.369   .     A
C473   O506    1.373   1_556 S
C474   N485    1.371   .     A
C474   O505    1.374   .     S
C475   C481    1.416   .     A
C475   N485    1.440   .     S
C475   C480    1.414   1_556 A
C476   C481    1.506   .     S
C476   H500    1.111   .     S
C476   H501    1.108   .     S
C476   H507    1.110   .     S
C477   C481    1.402   .     A
C477   C482    1.398   .     A
C477   H502    1.085   .     S
C478   C480    1.506   .     S
C478   H483    1.109   .     S
C478   H486    1.110   .     S
C478   H504    1.111   .     S
C479   C480    1.402   .     A
C479   C482    1.398   1_554 A
C480   C475    1.414   1_554 A
C482   C479    1.398   1_556 A
O506   C473    1.373   1_554 S
H508   C535    1.084   .     S
C509   C514    1.401   .     A
C509   C510    1.399   1_554 A
C510   C511    1.397   .     A
C510   H543    1.084   .     S
C510   C509    1.399   1_556 A
C511   C515    1.507   .     S
C511   C512    1.411   1_556 A
C512   C513    1.416   .     A
C512   N540    1.442   .     S
C512   C511    1.411   1_554 A
C513   C514    1.409   .     A
C513   C516    1.504   .     S
C514   H544    1.084   .     S
C515   H545    1.111   .     S
C515   H546    1.109   .     S
C515   H547    1.110   .     S
C516   H548    1.110   .     S
C516   H549    1.111   .     S
C516   H550    1.110   .     S
C517   C518    1.402   .     A
C517   O552    1.373   .     S
C517   N540    1.371   1_556 A
C518   C522    1.404   .     A
C518   C519    1.406   1_556 A
C519   C520    1.409   .     A
C519   C518    1.406   1_554 A
C519   C525    1.415   1_554 A
C520   C521    1.409   .     A
C520   C528    1.405   .     A
C521   N540    1.370   .     A
C521   O551    1.372   .     S
C522   C523    1.395   .     A
C522   H553    1.082   .     S
C523   C524    1.404   .     A
C523   H555    1.083   .     S
C524   C525    1.408   .     A
C524   C529    1.403   .     A
C525   C519    1.415   1_556 A
C525   C526    1.407   1_556 A
C526   C527    1.406   .     A
C526   C530    1.408   .     A
C526   C525    1.407   1_554 A
C527   C528    1.399   .     A
C527   H559    1.082   .     S
C528   H554    1.083   .     S
C529   N541    1.370   .     A
C529   O562    1.373   .     S
C530   O561    1.372   .     S
C530   N541    1.371   1_554 A
C531   C536    1.412   .     A
C531   C537    1.417   1_554 A
C531   N541    1.443   1_554 S
C532   C537    1.505   .     S
C532   H556    1.111   .     S
C532   H557    1.109   .     S
C532   H563    1.111   .     S
C533   C537    1.406   .     A
C533   H558    1.084   .     S
C533   C538    1.401   1_556 A
C534   C536    1.506   .     S
C534   H539    1.110   .     S
C534   H542    1.110   .     S
C534   H560    1.111   .     S
C535   C536    1.400   .     A
C535   C538    1.401   .     A
C537   C531    1.417   1_556 A
C538   C533    1.401   1_554 A
N540   C517    1.371   1_554 A
N541   C530    1.371   1_556 A
N541   C531    1.443   1_556 S
