data_kag+N155+E161
_audit_creation_date              2025-01-21
_audit_creation_method            'Materials Studio'
_symmetry_space_group_name_H-M    'P1'
_symmetry_Int_Tables_number       1
_symmetry_cell_setting            triclinic
loop_
_symmetry_equiv_pos_as_xyz
  x,y,z
_cell_length_a                    49.9589
_cell_length_b                    52.1170
_cell_length_c                    23.4059
_cell_angle_alpha                 90.4674
_cell_angle_beta                  93.7761
_cell_angle_gamma                 124.1343
loop_
_atom_site_label
_atom_site_type_symbol
_atom_site_fract_x
_atom_site_fract_y
_atom_site_fract_z
_atom_site_U_iso_or_equiv
_atom_site_adp_type
_atom_site_occupancy
C0     C     0.47623   0.41601   0.00779   0.00000  Uiso   1.00
Ho1    Ho    0.48742   0.47064   0.00329   0.00000  Uiso   1.00
C2     C     0.52622   0.59110   0.99517   0.00000  Uiso   1.00
Ho3    Ho    0.51316   0.53593   0.99822   0.00000  Uiso   1.00
O4     O     0.47779   0.43120   0.05296   0.00000  Uiso   1.00
O5     O     0.47480   0.42772   0.96088   0.00000  Uiso   1.00
O6     O     0.48424   0.45978   0.09486   0.00000  Uiso   1.00
O7     O     0.50156   0.50581   0.06719   0.00000  Uiso   1.00
C8     C     0.49403   0.48627   0.11185   0.00000  Uiso   1.00
C9     C     0.50672   0.52178   0.88999   0.00000  Uiso   1.00
O10    O     0.53889   0.48950   0.00885   0.00000  Uiso   1.00
O11    O     0.56060   0.54163   1.00245   0.00000  Uiso   1.00
O12    O     0.52420   0.57598   0.94952   0.00000  Uiso   1.00
O13    O     0.52632   0.57856   0.04181   0.00000  Uiso   1.00
O14    O     0.51711   0.54820   0.90866   0.00000  Uiso   1.00
O15    O     0.49861   0.50046   0.93224   0.00000  Uiso   1.00
O16    O     0.46185   0.51744   0.99297   0.00000  Uiso   1.00
O17    O     0.43982   0.46508  -0.00173   0.00000  Uiso   1.00
C18    C     0.43760   0.48889   0.99507   0.00000  Uiso   1.00
C19    C     0.56308   0.51808   0.00674   0.00000  Uiso   1.00
C20    C     0.06919   0.48498   0.00862   0.00000  Uiso   1.00
Ho21   Ho    0.02190   0.49283   0.00428   0.00000  Uiso   1.00
C22    C     0.93296   0.52309   0.99472   0.00000  Uiso   1.00
Ho23   Ho    0.97846   0.51316   0.99783   0.00000  Uiso   1.00
O24    O     0.05778   0.48796   0.05385   0.00000  Uiso   1.00
O25    O     0.05237   0.48211   0.96258   0.00000  Uiso   1.00
O26    O     0.03406   0.49135   0.09622   0.00000  Uiso   1.00
O27    O     1.00134   0.50437   0.06788   0.00000  Uiso   1.00
C28    C     1.01615   0.49868   0.11323   0.00000  Uiso   1.00
C29    C    -0.01328   0.51064   0.89019   0.00000  Uiso   1.00
O30    O     0.05752   0.54267   0.00411   0.00000  Uiso   1.00
O31    O     0.02432   0.56006   1.00075   0.00000  Uiso   1.00
O32    O     0.94482   0.52123   0.94903   0.00000  Uiso   1.00
O33    O     0.94835   0.52368   0.04099   0.00000  Uiso   1.00
O34    O     0.97120   0.52039   0.90765   0.00000  Uiso   1.00
O35    O    -0.00445   0.49752   0.93245   0.00000  Uiso   1.00
O36    O     0.94297   0.46349   0.99394   0.00000  Uiso   1.00
O37    O     0.97593   0.44557   0.00329   0.00000  Uiso   1.00
C38    C     0.94732   0.44125   0.99774   0.00000  Uiso   1.00
C39    C     0.05284   0.56465   0.00321   0.00000  Uiso   1.00
C40    C     0.52234   0.94009   0.99422   0.00000  Uiso   1.00
Ho41   Ho    0.51179   0.98315   0.99898   0.00000  Uiso   1.00
C42    C     0.47712   0.06434   0.00599   0.00000  Uiso   1.00
Ho43   Ho    0.48728   0.02107   0.00240   0.00000  Uiso   1.00
O44    O     0.52030   0.95301   0.94918   0.00000  Uiso   1.00
O45    O     0.52495   0.95427   0.04127   0.00000  Uiso   1.00
O46    O     0.51945   0.97740   0.91103   0.00000  Uiso   1.00
O47    O     0.49311  -0.00169   0.93101   0.00000  Uiso   1.00
C48    C     0.50890  -0.00777   0.89147   0.00000  Uiso   1.00
C49    C     0.49409   0.01550   0.11156   0.00000  Uiso   1.00
O50    O     0.46032   0.94692   0.99568   0.00000  Uiso   1.00
O51    O     0.43932   0.97632   0.00348   0.00000  Uiso   1.00
O52    O     0.47985   0.05214   0.05173   0.00000  Uiso   1.00
O53    O     0.47483   0.05003   0.95927   0.00000  Uiso   1.00
O54    O     0.48563   0.03204   0.09253   0.00000  Uiso   1.00
O55    O     0.50135   1.00200   0.06902   0.00000  Uiso   1.00
O56    O     0.53853   0.05697   0.00280   0.00000  Uiso   1.00
O57    O     0.56028   0.02849   1.00162   0.00000  Uiso   1.00
C58    C     0.56300   0.05490   0.00158   0.00000  Uiso   1.00
C59    C     0.43642   0.94976   1.00116   0.00000  Uiso   1.00
H60    H     0.55191   0.52552   0.82773   0.00000  Uiso   1.00
C61    C     0.49798   0.49642   0.17218   0.00000  Uiso   1.00
C62    C     0.47516   0.50046   0.19423   0.00000  Uiso   1.00
C63    C     0.47706   0.50739   0.25308   0.00000  Uiso   1.00
C64    C     0.50242   0.51052   0.28992   0.00000  Uiso   1.00
C65    C     0.52692   0.50896   0.26668   0.00000  Uiso   1.00
C66    C     0.52439   0.50180   0.20781   0.00000  Uiso   1.00
C67    C     0.45132   0.51000   0.27675   0.00000  Uiso   1.00
C68    C     0.55471   0.51314   0.30481   0.00000  Uiso   1.00
C69    C     0.48231   0.48179   0.37469   0.00000  Uiso   1.00
C70    C     0.48102   0.47986   0.43429   0.00000  Uiso   1.00
C71    C     0.49834   0.50739   0.46945   0.00000  Uiso   1.00
C72    C     0.51637   0.53638   0.44454   0.00000  Uiso   1.00
C73    C     0.51710   0.53715   0.38452   0.00000  Uiso   1.00
C74    C     0.46314   0.45108   0.45945   0.00000  Uiso   1.00
C75    C     0.46300   0.44959   0.51901   0.00000  Uiso   1.00
C76    C     0.48044   0.47690   0.55467   0.00000  Uiso   1.00
C77    C     0.49774   0.50590   0.52968   0.00000  Uiso   1.00
C78    C     0.51457   0.53345   0.56478   0.00000  Uiso   1.00
C79    C     0.53226   0.56224   0.53965   0.00000  Uiso   1.00
C80    C     0.53334   0.56370   0.48020   0.00000  Uiso   1.00
C81    C     0.48114   0.47608   0.61481   0.00000  Uiso   1.00
C82    C     0.51333   0.53150   0.62436   0.00000  Uiso   1.00
C83    C     0.49764   0.50253   0.70984   0.00000  Uiso   1.00
C84    C     0.43866   0.48662   0.70591   0.00000  Uiso   1.00
C85    C     0.47365   0.50208   0.79734   0.00000  Uiso   1.00
C86    C     0.55548   0.51654   0.71494   0.00000  Uiso   1.00
C87    C     0.52930   0.51729   0.80233   0.00000  Uiso   1.00
C88    C     0.52671   0.51155   0.74291   0.00000  Uiso   1.00
C89    C     0.47057   0.49677   0.73778   0.00000  Uiso   1.00
C90    C     0.50316   0.51342   0.82903   0.00000  Uiso   1.00
H91    H     0.56651   0.53777   0.69017   0.00000  Uiso   1.00
N92    N     0.50044   0.51006   0.35107   0.00000  Uiso   1.00
N93    N     0.49724   0.50318   0.64825   0.00000  Uiso   1.00
H94    H     0.54767   0.49622   0.68566   0.00000  Uiso   1.00
H95    H     0.45516   0.49688   0.16597   0.00000  Uiso   1.00
H96    H     0.54253   0.49962   0.18995   0.00000  Uiso   1.00
H97    H     0.43480   0.50958   0.24194   0.00000  Uiso   1.00
H98    H     0.43665   0.49031   0.30425   0.00000  Uiso   1.00
H99    H     0.46287   0.53220   0.30280   0.00000  Uiso   1.00
H100   H     0.54536   0.49374   0.33411   0.00000  Uiso   1.00
H101   H     0.57293   0.51349   0.27934   0.00000  Uiso   1.00
H102   H     0.56718   0.53554   0.33052   0.00000  Uiso   1.00
O103   O     0.53484   0.56508   0.35943   0.00000  Uiso   1.00
O104   O     0.46572   0.45509   0.33985   0.00000  Uiso   1.00
H105   H     0.44937   0.42961   0.43319   0.00000  Uiso   1.00
H106   H     0.54753   0.58629   0.46241   0.00000  Uiso   1.00
H107   H     0.44915   0.42700   0.53689   0.00000  Uiso   1.00
H108   H     0.43253   0.50353   0.71612   0.00000  Uiso   1.00
H109   H     0.43893   0.48501   0.65877   0.00000  Uiso   1.00
H110   H     0.45328   0.49838   0.81892   0.00000  Uiso   1.00
H111   H     0.54562   0.58372   0.56590   0.00000  Uiso   1.00
H112   H     0.57440   0.51938   0.74731   0.00000  Uiso   1.00
O113   O     0.52842   0.55822   0.65897   0.00000  Uiso   1.00
O114   O     0.46532   0.44807   0.64005   0.00000  Uiso   1.00
H115   H     0.41933   0.46345   0.71982   0.00000  Uiso   1.00
H116   H     0.96757   0.45591   0.17274   0.00000  Uiso   1.00
C117   C     0.99180   0.50939   0.82960   0.00000  Uiso   1.00
C118   C     0.01318   0.53679   0.80333   0.00000  Uiso   1.00
C119   C     0.01659   0.53637   0.74439   0.00000  Uiso   1.00
C120   C     0.99820   0.50793   0.71130   0.00000  Uiso   1.00
C121   C     0.97734   0.48004   0.73831   0.00000  Uiso   1.00
C122   C     0.97473   0.48102   0.79759   0.00000  Uiso   1.00
C123   C     0.03883   0.56638   0.71664   0.00000  Uiso   1.00
C124   C     0.95712   0.44953   0.70385   0.00000  Uiso   1.00
C125   C     0.02245   0.50622   0.62548   0.00000  Uiso   1.00
C126   C     0.02369   0.50641   0.56553   0.00000  Uiso   1.00
C127   C     1.00071   0.50828   0.53098   0.00000  Uiso   1.00
C128   C     0.97703   0.50999   0.55668   0.00000  Uiso   1.00
C129   C     0.97664   0.50956   0.61670   0.00000  Uiso   1.00
C130   C     0.04726   0.50479   0.53937   0.00000  Uiso   1.00
C131   C     0.04758   0.50439   0.47972   0.00000  Uiso   1.00
C132   C     0.02459   0.50597   0.44490   0.00000  Uiso   1.00
C133   C     0.00137   0.50839   0.47060   0.00000  Uiso   1.00
C134   C     0.97880   0.51086   0.43606   0.00000  Uiso   1.00
C135   C     0.95539   0.51276   0.46229   0.00000  Uiso   1.00
C136   C     0.95440   0.51212   0.52188   0.00000  Uiso   1.00
C137   C     0.02419   0.50509   0.38482   0.00000  Uiso   1.00
C138   C     0.98026   0.51127   0.37607   0.00000  Uiso   1.00
C139   C     0.00327   0.50718   0.28986   0.00000  Uiso   1.00
C140   C     0.05375   0.56312   0.29542   0.00000  Uiso   1.00
C141   C     0.03257   0.52965   0.20497   0.00000  Uiso   1.00
C142   C     0.95281   0.45187   0.28331   0.00000  Uiso   1.00
C143   C     0.98460   0.47719   0.19818   0.00000  Uiso   1.00
C144   C     0.98050   0.47948   0.25653   0.00000  Uiso   1.00
C145   C     0.02908   0.53265   0.26322   0.00000  Uiso   1.00
C146   C     0.01145   0.50161   0.17321   0.00000  Uiso   1.00
H147   H     0.93746   0.45822   0.30290   0.00000  Uiso   1.00
N148   N     0.99910   0.50771   0.64978   0.00000  Uiso   1.00
N149   N     0.00246   0.50799   0.35156   0.00000  Uiso   1.00
H150   H     0.96262   0.44367   0.31706   0.00000  Uiso   1.00
H151   H     0.02662   0.55864   0.82856   0.00000  Uiso   1.00
H152   H     0.95814   0.45993   0.81839   0.00000  Uiso   1.00
H153   H     0.05259   0.58625   0.74897   0.00000  Uiso   1.00
H154   H     0.05667   0.56492   0.69337   0.00000  Uiso   1.00
H155   H     0.02423   0.57098   0.68594   0.00000  Uiso   1.00
H156   H     0.97292   0.44558   0.67936   0.00000  Uiso   1.00
H157   H     0.94346   0.42972   0.73171   0.00000  Uiso   1.00
H158   H     0.93935   0.44989   0.67339   0.00000  Uiso   1.00
O159   O     0.95369   0.51117   0.64244   0.00000  Uiso   1.00
O160   O     0.04476   0.50458   0.65976   0.00000  Uiso   1.00
H161   H     0.06547   0.50371   0.56482   0.00000  Uiso   1.00
H162   H     0.93587   0.51336   0.54060   0.00000  Uiso   1.00
H163   H     0.06597   0.50294   0.46097   0.00000  Uiso   1.00
H164   H     0.05118   0.58159   0.27853   0.00000  Uiso   1.00
H165   H     0.05108   0.56243   0.34224   0.00000  Uiso   1.00
H166   H     0.05249   0.54899   0.18486   0.00000  Uiso   1.00
H167   H     0.93759   0.51448   0.43691   0.00000  Uiso   1.00
H168   H     0.93689   0.43233   0.25110   0.00000  Uiso   1.00
O169   O     0.95935   0.51495   0.34199   0.00000  Uiso   1.00
O170   O     0.04586   0.50144   0.35918   0.00000  Uiso   1.00
H171   H     0.07858   0.56937   0.28910   0.00000  Uiso   1.00
H172   H     0.46665   0.00044   0.82796   0.00000  Uiso   1.00
C173   C     0.49442   1.00900   0.17262   0.00000  Uiso   1.00
C174   C     0.51189   0.99712   0.19444   0.00000  Uiso   1.00
C175   C     0.51216   0.99082   0.25261   0.00000  Uiso   1.00
C176   C     0.49449   0.99646   0.28936   0.00000  Uiso   1.00
C177   C     0.47554   0.00699   0.26678   0.00000  Uiso   1.00
C178   C     0.47572   0.01320   0.20862   0.00000  Uiso   1.00
C179   C     0.53169   0.97867   0.27523   0.00000  Uiso   1.00
C180   C     0.45614   0.01274   0.30502   0.00000  Uiso   1.00
C181   C     0.52353   0.02071   0.38123   0.00000  Uiso   1.00
C182   C     0.52496   0.02253   0.44130   0.00000  Uiso   1.00
C183   C     0.50059   0.99714   0.46954   0.00000  Uiso   1.00
C184   C     0.47581   0.97006   0.43750   0.00000  Uiso   1.00
C185   C     0.47527   0.96941   0.37728   0.00000  Uiso   1.00
C186   C     0.54958   0.04943   0.47354   0.00000  Uiso   1.00
C187   C     0.54948   0.05148   0.53302   0.00000  Uiso   1.00
C188   C     0.52506   0.02648   0.56163   0.00000  Uiso   1.00
C189   C     0.50084   0.99901   0.52987   0.00000  Uiso   1.00
C190   C     0.47684   0.97344   0.55828   0.00000  Uiso   1.00
C191   C     0.45242   0.94640   0.52608   0.00000  Uiso   1.00
C192   C     0.45180   0.94479   0.46632   0.00000  Uiso   1.00
C193   C     0.52456   0.02791   0.62148   0.00000  Uiso   1.00
C194   C     0.47831   0.97542   0.61841   0.00000  Uiso   1.00
C195   C     0.50511   0.00262   0.71040   0.00000  Uiso   1.00
C196   C     0.55369   0.99811   0.70712   0.00000  Uiso   1.00
C197   C     0.53104  -0.00164   0.79785   0.00000  Uiso   1.00
C198   C     0.45705   0.00705   0.71492   0.00000  Uiso   1.00
C199   C     0.48451   0.00102   0.80299   0.00000  Uiso   1.00
C200   C     0.48282   0.00366   0.74321   0.00000  Uiso   1.00
C201   C     0.52955   0.00023   0.73849   0.00000  Uiso   1.00
C202   C     0.50839  -0.00204   0.83016   0.00000  Uiso   1.00
H203   H     0.43940   0.98607   0.68693   0.00000  Uiso   1.00
N204   N     0.49836   0.99490   0.35050   0.00000  Uiso   1.00
N205   N     0.50207   0.00228   0.64870   0.00000  Uiso   1.00
H206   H     0.46851   0.02777   0.68870   0.00000  Uiso   1.00
H207   H     0.52580   0.99337   0.16621   0.00000  Uiso   1.00
H208   H     0.46110   0.02123   0.19137   0.00000  Uiso   1.00
H209   H     0.54256   0.97385   0.24024   0.00000  Uiso   1.00
H210   H     0.55163   0.99602   0.30662   0.00000  Uiso   1.00
H211   H     0.51579   0.95671   0.29658   0.00000  Uiso   1.00
H212   H     0.47280   0.03156   0.33792   0.00000  Uiso   1.00
H213   H     0.44171   0.01978   0.28029   0.00000  Uiso   1.00
H214   H     0.43900   0.99124   0.32661   0.00000  Uiso   1.00
O215   O     0.45080   0.94364   0.34514   0.00000  Uiso   1.00
O216   O     0.54662   0.04561   0.35299   0.00000  Uiso   1.00
H217   H     0.56878   0.06912   0.45285   0.00000  Uiso   1.00
H218   H     0.43236   0.92374   0.44288   0.00000  Uiso   1.00
H219   H     0.56868   0.07266   0.55644   0.00000  Uiso   1.00
H220   H     0.55125   0.97608   0.71704   0.00000  Uiso   1.00
H221   H     0.55018  -0.00173   0.65995   0.00000  Uiso   1.00
H222   H     0.54977  -0.00340   0.81916   0.00000  Uiso   1.00
H223   H     0.43356   0.92652   0.54693   0.00000  Uiso   1.00
H224   H     0.44343   0.00998   0.74717   0.00000  Uiso   1.00
O225   O     0.45654   0.94993   0.64704   0.00000  Uiso   1.00
O226   O     0.54769   0.05460   0.65314   0.00000  Uiso   1.00
H227   H     0.57868   0.01799   0.72195   0.00000  Uiso   1.00
H228   H     0.12206   0.51660   0.08689   0.00000  Uiso   1.00
C229   C     0.40664   0.48562   0.99645   0.00000  Uiso   1.00
C230   C     0.38760   0.47995   0.94524   0.00000  Uiso   1.00
C231   C     0.36477   0.48772   0.94179   0.00000  Uiso   1.00
C232   C     0.36084   0.50114   0.99052   0.00000  Uiso   1.00
C233   C     0.38078   0.50777   0.04156   0.00000  Uiso   1.00
C234   C     0.40308   0.49952   0.04421   0.00000  Uiso   1.00
C235   C     0.34551   0.48282   0.88576   0.00000  Uiso   1.00
C236   C     0.37926   0.52464   0.09243   0.00000  Uiso   1.00
C237   C     0.30448   0.47664   0.00403   0.00000  Uiso   1.00
C238   C     0.27642   0.47643   0.00514   0.00000  Uiso   1.00
C239   C     0.27781   0.50354   0.99289   0.00000  Uiso   1.00
C240   C     0.30732   0.53047   0.97952   0.00000  Uiso   1.00
C241   C     0.33511   0.52962   0.97910   0.00000  Uiso   1.00
C242   C     0.24703   0.44961   0.01815   0.00000  Uiso   1.00
C243   C     0.21935   0.44976   0.02011   0.00000  Uiso   1.00
C244   C     0.22036   0.47664   0.00852   0.00000  Uiso   1.00
C245   C     0.24951   0.50354   0.99403   0.00000  Uiso   1.00
C246   C     0.25031   0.53023   0.98056   0.00000  Uiso   1.00
C247   C     0.27986   0.55705   0.96694   0.00000  Uiso   1.00
C248   C     0.30809   0.55724   0.96685   0.00000  Uiso   1.00
C249   C     0.19270   0.47709   0.01088   0.00000  Uiso   1.00
C250   C     0.22137   0.52914   0.98095   0.00000  Uiso   1.00
C251   C     0.16339   0.50108   0.99717   0.00000  Uiso   1.00
C252   C     0.14222   0.46947   0.90110   0.00000  Uiso   1.00
C253   C     0.10714   0.47720   0.95954   0.00000  Uiso   1.00
C254   C     0.18472   0.53390   0.09061   0.00000  Uiso   1.00
C255   C     0.12634   0.50682   0.05039   0.00000  Uiso   1.00
C256   C     0.15764   0.51355   0.04512   0.00000  Uiso   1.00
C257   C     0.13782   0.48299   0.95393   0.00000  Uiso   1.00
C258   C     0.10084   0.48842   0.00784   0.00000  Uiso   1.00
H259   H     0.20515   0.55431   0.07109   0.00000  Uiso   1.00
N260   N     0.33306   0.50286   0.99116   0.00000  Uiso   1.00
N261   N     0.19334   0.50284   0.99649   0.00000  Uiso   1.00
H262   H     0.19360   0.52064   0.11141   0.00000  Uiso   1.00
H263   H     0.39183   0.47112   0.90729   0.00000  Uiso   1.00
H264   H     0.41933   0.50573   0.08261   0.00000  Uiso   1.00
H265   H     0.35369   0.47516   0.85036   0.00000  Uiso   1.00
H266   H     0.31938   0.46497   0.88963   0.00000  Uiso   1.00
H267   H     0.34874   0.50499   0.87428   0.00000  Uiso   1.00
H268   H     0.35534   0.50998   0.11020   0.00000  Uiso   1.00
H269   H     0.39860   0.53061   0.12688   0.00000  Uiso   1.00
H270   H     0.38288   0.54673   0.07913   0.00000  Uiso   1.00
O271   O     0.36417   0.55553   0.96639   0.00000  Uiso   1.00
O272   O     0.30325   0.45024   0.01596   0.00000  Uiso   1.00
H273   H     0.24531   0.42840   0.02697   0.00000  Uiso   1.00
H274   H     0.33043   0.57835   0.95661   0.00000  Uiso   1.00
H275   H     0.19710   0.42865   0.03040   0.00000  Uiso   1.00
H276   H     0.14003   0.48089   0.86296   0.00000  Uiso   1.00
H277   H     0.16612   0.47261   0.90250   0.00000  Uiso   1.00
H278   H     0.08788   0.46366   0.92584   0.00000  Uiso   1.00
H279   H     0.28134   0.57802   0.95664   0.00000  Uiso   1.00
H280   H     0.17674   0.54280   0.12413   0.00000  Uiso   1.00
O281   O     0.22122   0.55436   0.96515   0.00000  Uiso   1.00
O282   O     0.16452   0.45122   0.02688   0.00000  Uiso   1.00
H283   H     0.12304   0.44417   0.89595   0.00000  Uiso   1.00
H284   H     0.57090   0.10954   0.98664   0.00000  Uiso   1.00
C285   C     0.91659   0.40987   0.99531   0.00000  Uiso   1.00
C286   C     0.91506   0.38233   0.98806   0.00000  Uiso   1.00
C287   C     0.88477   0.35340   0.98416   0.00000  Uiso   1.00
C288   C     0.85592   0.35218   0.98799   0.00000  Uiso   1.00
C289   C     0.85738   0.37973   0.99444   0.00000  Uiso   1.00
C290   C     0.88743   0.40803   0.99819   0.00000  Uiso   1.00
C291   C     0.88303   0.32384   0.97596   0.00000  Uiso   1.00
C292   C     0.82711   0.37926   0.99820   0.00000  Uiso   1.00
C293   C     0.81635   0.30942   0.04086   0.00000  Uiso   1.00
C294   C     0.78695   0.28048   0.04373   0.00000  Uiso   1.00
C295   C     0.76670   0.26558   0.99299   0.00000  Uiso   1.00
C296   C     0.77573   0.28013   0.94060   0.00000  Uiso   1.00
C297   C     0.80538   0.30920   0.93993   0.00000  Uiso   1.00
C298   C     0.77762   0.26595   0.09583   0.00000  Uiso   1.00
C299   C     0.74859   0.23680   0.09751   0.00000  Uiso   1.00
C300   C     0.72847   0.22144   0.04700   0.00000  Uiso   1.00
C301   C     0.73758   0.23588   0.99455   0.00000  Uiso   1.00
C302   C     0.71790   0.22047   0.94354   0.00000  Uiso   1.00
C303   C     0.72671   0.23547   0.89171   0.00000  Uiso   1.00
C304   C     0.75521   0.26509   0.89032   0.00000  Uiso   1.00
C305   C     0.69959   0.19173   0.04734   0.00000  Uiso   1.00
C306   C     0.69007   0.19021   0.94567   0.00000  Uiso   1.00
C307   C     0.65239   0.14560   0.99821   0.00000  Uiso   1.00
C308   C     0.68581   0.12255   0.01254   0.00000  Uiso   1.00
C309   C     0.62490   0.08939   0.00561   0.00000  Uiso   1.00
C310   C     0.61927   0.16882   0.98656   0.00000  Uiso   1.00
C311   C     0.59385   0.11183   0.99215   0.00000  Uiso   1.00
C312   C     0.62204   0.14156   0.99210   0.00000  Uiso   1.00
C313   C     0.65387   0.11935   0.00521   0.00000  Uiso   1.00
C314   C     0.59465   0.08541  -0.00057   0.00000  Uiso   1.00
H315   H     0.62865   0.18021   0.94601   0.00000  Uiso   1.00
N316   N     0.82524   0.32283   0.98939   0.00000  Uiso   1.00
N317   N     0.68151   0.17642   0.99701   0.00000  Uiso   1.00
H318   H     0.63326   0.18582   0.02337   0.00000  Uiso   1.00
H319   H     0.93716   0.38334   0.98503   0.00000  Uiso   1.00
H320   H     0.88778   0.42887   0.00367   0.00000  Uiso   1.00
H321   H     0.90734   0.32846   0.97173   0.00000  Uiso   1.00
H322   H     0.87259   0.30932   0.01321   0.00000  Uiso   1.00
H323   H     0.86725   0.31073   0.93643   0.00000  Uiso   1.00
H324   H     0.81457   0.36670   0.03609   0.00000  Uiso   1.00
H325   H     0.83265   0.40308   1.00244   0.00000  Uiso   1.00
H326   H     0.81058   0.36759   0.95878   0.00000  Uiso   1.00
O327   O     0.81470   0.32382   0.88943   0.00000  Uiso   1.00
O328   O     0.83647   0.32425   0.08987   0.00000  Uiso   1.00
H329   H     0.79287   0.27691   0.13537   0.00000  Uiso   1.00
H330   H     0.76133   0.27592   0.84961   0.00000  Uiso   1.00
H331   H     0.74229   0.22617   0.13836   0.00000  Uiso   1.00
H332   H     0.68717   0.10898   0.97745   0.00000  Uiso   1.00
H333   H     0.70704   0.14691   0.01169   0.00000  Uiso   1.00
H334   H     0.62613   0.06945   0.01128   0.00000  Uiso   1.00
H335   H     0.71169   0.22432   0.85202   0.00000  Uiso   1.00
H336   H     0.59369   0.16164   0.98614   0.00000  Uiso   1.00
O337   O     0.67145   0.17430   0.89593   0.00000  Uiso   1.00
O338   O     0.68973   0.17774   0.09826   0.00000  Uiso   1.00
H339   H     0.68785   0.11364   0.05438   0.00000  Uiso   1.00
H340   H     0.58524   0.49593   0.08354   0.00000  Uiso   1.00
C341   C     0.90184   0.52035   0.99485   0.00000  Uiso   1.00
C342   C     0.89378   0.53582   0.95618   0.00000  Uiso   1.00
C343   C     0.86384   0.53255   0.95682   0.00000  Uiso   1.00
C344   C     0.84090   0.51210   0.99444   0.00000  Uiso   1.00
C345   C     0.84852   0.49565   0.03210   0.00000  Uiso   1.00
C346   C     0.87912   0.50035   0.03266   0.00000  Uiso   1.00
C347   C     0.85680   0.55158   0.91885   0.00000  Uiso   1.00
C348   C     0.82419   0.47315   0.07150   0.00000  Uiso   1.00
C349   C     0.78475   0.49012   0.95851   0.00000  Uiso   1.00
C350   C     0.75619   0.48956   0.95764   0.00000  Uiso   1.00
C351   C     0.75485   0.50934   0.99693   0.00000  Uiso   1.00
C352   C     0.78156   0.52876   0.03691   0.00000  Uiso   1.00
C353   C     0.80938   0.52835   0.03641   0.00000  Uiso   1.00
C354   C     0.72925   0.47026   0.91805   0.00000  Uiso   1.00
C355   C     0.70135   0.47050   0.91777   0.00000  Uiso   1.00
C356   C     0.69988   0.49031   0.95668   0.00000  Uiso   1.00
C357   C     0.72690   0.50998   0.99598   0.00000  Uiso   1.00
C358   C     0.72619   0.53056   0.03413   0.00000  Uiso   1.00
C359   C     0.75286   0.54965   0.07398   0.00000  Uiso   1.00
C360   C     0.78014   0.54858   0.07567   0.00000  Uiso   1.00
C361   C     0.67223   0.49120   0.95742   0.00000  Uiso   1.00
C362   C     0.69880   0.53167   0.03144   0.00000  Uiso   1.00
C363   C     0.64434   0.51316   0.99546   0.00000  Uiso   1.00
C364   C     0.65554   0.54026   0.90053   0.00000  Uiso   1.00
C365   C     0.61313   0.53372   0.96121   0.00000  Uiso   1.00
C366   C     0.62920   0.48143   0.08415   0.00000  Uiso   1.00
C367   C     0.60067   0.50596   0.04847   0.00000  Uiso   1.00
C368   C     0.62500   0.50095   0.04221   0.00000  Uiso   1.00
C369   C     0.63789   0.52916   0.95404   0.00000  Uiso   1.00
C370   C     0.59453   0.52216   1.00818   0.00000  Uiso   1.00
H371   H     0.65267   0.49595   0.11050   0.00000  Uiso   1.00
N372   N     0.81079   0.50972   0.99690   0.00000  Uiso   1.00
N373   N     0.67241   0.51201   0.99401   0.00000  Uiso   1.00
H374   H     0.62852   0.46247   0.06054   0.00000  Uiso   1.00
H375   H     0.91123   0.55107   0.92679   0.00000  Uiso   1.00
H376   H     0.88503   0.48782   0.06185   0.00000  Uiso   1.00
H377   H     0.87683   0.56608   0.89134   0.00000  Uiso   1.00
H378   H     0.83421   0.53611   0.89070   0.00000  Uiso   1.00
H379   H     0.85365   0.56718   0.94582   0.00000  Uiso   1.00
H380   H     0.80106   0.45575   0.04623   0.00000  Uiso   1.00
H381   H     0.83295   0.46045   0.09511   0.00000  Uiso   1.00
H382   H     0.81950   0.48577   0.10334   0.00000  Uiso   1.00
O383   O     0.83563   0.54734   0.07493   0.00000  Uiso   1.00
O384   O     0.78672   0.47130   0.92014   0.00000  Uiso   1.00
H385   H     0.72969   0.45502   0.88694   0.00000  Uiso   1.00
H386   H     0.80026   0.56363   0.10699   0.00000  Uiso   1.00
H387   H     0.68111   0.45542   0.88658   0.00000  Uiso   1.00
H388   H     0.66644   0.56547   0.89746   0.00000  Uiso   1.00
H389   H     0.67518   0.53644   0.89917   0.00000  Uiso   1.00
H390   H     0.60706   0.54464   0.92839   0.00000  Uiso   1.00
H391   H     0.75273   0.56547   0.10406   0.00000  Uiso   1.00
H392   H     0.60945   0.47050   0.11357   0.00000  Uiso   1.00
O393   O     0.69835   0.55249   0.06706   0.00000  Uiso   1.00
O394   O     0.64513   0.47140   0.92116   0.00000  Uiso   1.00
H395   H     0.63795   0.52752   0.86254   0.00000  Uiso   1.00
H396   H     0.10999   0.58311   0.05745   0.00000  Uiso   1.00
C397   C     0.40501   0.92006   0.00668   0.00000  Uiso   1.00
C398   C     0.37511   0.91524   0.98913   0.00000  Uiso   1.00
C399   C     0.34629   0.88531   0.98897   0.00000  Uiso   1.00
C400   C     0.34766   0.86019   0.00699   0.00000  Uiso   1.00
C401   C     0.37756   0.86527   0.02671   0.00000  Uiso   1.00
C402   C     0.40571   0.89509   0.02704   0.00000  Uiso   1.00
C403   C     0.31424   0.88001   0.96899   0.00000  Uiso   1.00
C404   C     0.37980   0.83900   0.04629   0.00000  Uiso   1.00
C405   C     0.30798   0.81074   0.95665   0.00000  Uiso   1.00
C406   C     0.27939   0.78069   0.95444   0.00000  Uiso   1.00
C407   C     0.26198   0.77025   0.00353   0.00000  Uiso   1.00
C408   C     0.27363   0.78963   0.05404   0.00000  Uiso   1.00
C409   C     0.30236   0.81935   0.05424   0.00000  Uiso   1.00
C410   C     0.26764   0.76103   0.90450   0.00000  Uiso   1.00
C411   C     0.23888   0.73138   0.90331   0.00000  Uiso   1.00
C412   C     0.22108   0.72090   0.95184   0.00000  Uiso   1.00
C413   C     0.23267   0.74051   1.00202   0.00000  Uiso   1.00
C414   C     0.21482   0.73059   0.05059   0.00000  Uiso   1.00
C415   C     0.22694   0.74990   0.10095   0.00000  Uiso   1.00
C416   C     0.25616   0.77903   0.10276   0.00000  Uiso   1.00
C417   C     0.19170   0.69143   0.95157   0.00000  Uiso   1.00
C418   C     0.18499   0.70166   0.04739   0.00000  Uiso   1.00
C419   C     0.14335   0.65300   0.99768   0.00000  Uiso   1.00
C420   C     0.11545   0.67217   0.93277   0.00000  Uiso   1.00
C421   C     0.08466   0.61988   0.97379   0.00000  Uiso   1.00
C422   C     0.17151   0.63252   0.05649   0.00000  Uiso   1.00
C423   C     0.11125   0.60129   0.03302   0.00000  Uiso   1.00
C424   C     0.14142   0.62906   0.02891   0.00000  Uiso   1.00
C425   C     0.11476   0.64819   0.96931   0.00000  Uiso   1.00
C426   C     0.08279   0.59627   1.00519   0.00000  Uiso   1.00
H427   H     0.18264   0.65059   0.09213   0.00000  Uiso   1.00
N428   N     0.31857   0.82941   0.00581   0.00000  Uiso   1.00
N429   N     0.17399   0.68274   0.99850   0.00000  Uiso   1.00
H430   H     0.18934   0.63915   0.02412   0.00000  Uiso   1.00
H431   H     0.37438   0.93439   0.97379   0.00000  Uiso   1.00
H432   H     0.42861   0.89870   0.04226   0.00000  Uiso   1.00
H433   H     0.31713   0.90178   0.95566   0.00000  Uiso   1.00
H434   H     0.30284   0.86287   0.93175   0.00000  Uiso   1.00
H435   H     0.29784   0.87083   0.00419   0.00000  Uiso   1.00
H436   H     0.36978   0.82068   0.01126   0.00000  Uiso   1.00
H437   H     0.40534   0.84688   0.05818   0.00000  Uiso   1.00
H438   H     0.36591   0.82898   0.08438   0.00000  Uiso   1.00
O439   O     0.31415   0.83855   0.10307   0.00000  Uiso   1.00
O440   O     0.32534   0.82152   0.90933   0.00000  Uiso   1.00
H441   H     0.28050   0.76854   0.86611   0.00000  Uiso   1.00
H442   H     0.26478   0.79336   0.14222   0.00000  Uiso   1.00
H443   H     0.23044   0.71690   0.86405   0.00000  Uiso   1.00
H444   H     0.09915   0.67825   0.94876   0.00000  Uiso   1.00
H445   H     0.13999   0.69388   0.93262   0.00000  Uiso   1.00
H446   H     0.06294   0.61591   0.95110   0.00000  Uiso   1.00
H447   H     0.21387   0.74260   0.13909   0.00000  Uiso   1.00
H448   H     0.16601   0.61049   0.07430   0.00000  Uiso   1.00
O449   O     0.16662   0.69229   0.09358   0.00000  Uiso   1.00
O450   O     0.18040   0.67155   0.90381   0.00000  Uiso   1.00
H451   H     0.10689   0.66247   0.88781   0.00000  Uiso   1.00
H452   H     0.50244   0.60727   0.07621   0.00000  Uiso   1.00
C453   C     0.51673   0.90900   0.99269   0.00000  Uiso   1.00
C454   C     0.51560   0.89441   0.94110   0.00000  Uiso   1.00
C455   C     0.50714   0.86370   0.93938   0.00000  Uiso   1.00
C456   C     0.49944   0.84717   0.98996   0.00000  Uiso   1.00
C457   C     0.49851   0.86106   0.04108   0.00000  Uiso   1.00
C458   C     0.50759   0.89189   0.04218   0.00000  Uiso   1.00
C459   C     0.50698   0.84874   0.88396   0.00000  Uiso   1.00
C460   C     0.48833   0.84323   0.09465   0.00000  Uiso   1.00
C461   C     0.52819   0.82272   0.00235   0.00000  Uiso   1.00
C462   C     0.52981   0.79678   0.00348   0.00000  Uiso   1.00
C463   C     0.50103   0.76690   0.99382   0.00000  Uiso   1.00
C464   C     0.47103   0.76344   0.98336   0.00000  Uiso   1.00
C465   C     0.47059   0.79034   0.98287   0.00000  Uiso   1.00
C466   C     0.55967   0.80019   0.01358   0.00000  Uiso   1.00
C467   C     0.56100   0.77423   0.01496   0.00000  Uiso   1.00
C468   C     0.53253   0.74430   0.00558   0.00000  Uiso   1.00
C469   C     0.50244   0.74054   0.99430   0.00000  Uiso   1.00
C470   C     0.47394   0.71058   0.98304   0.00000  Uiso   1.00
C471   C     0.44402   0.70724   0.97270   0.00000  Uiso   1.00
C472   C     0.44255   0.73335   0.97325   0.00000  Uiso   1.00
C473   C     0.53356   0.71801   0.00652   0.00000  Uiso   1.00
C474   C     0.47637   0.68487   0.98186   0.00000  Uiso   1.00
C475   C     0.50882   0.66303   0.99142   0.00000  Uiso   1.00
C476   C     0.53111   0.67750   0.89277   0.00000  Uiso   1.00
C477   C     0.52917   0.63534   0.94661   0.00000  Uiso   1.00
C478   C     0.48503   0.64722   0.08793   0.00000  Uiso   1.00
C479   C     0.50866   0.62190   0.04003   0.00000  Uiso   1.00
C480   C     0.50112   0.64405   0.03867   0.00000  Uiso   1.00
C481   C     0.52278   0.65841   0.94487   0.00000  Uiso   1.00
C482   C     0.52292   0.61754  -0.00542   0.00000  Uiso   1.00
H483   H     0.46144   0.64313   0.07204   0.00000  Uiso   1.00
N484   N     0.49902   0.81925   0.99193   0.00000  Uiso   1.00
N485   N     0.50591   0.68905   0.99360   0.00000  Uiso   1.00
H486   H     0.50096   0.67082   0.10917   0.00000  Uiso   1.00
H487   H     0.52129   0.90691   0.90221   0.00000  Uiso   1.00
H488   H     0.50677   0.90229   0.08174   0.00000  Uiso   1.00
H489   H     0.51021   0.86327   0.84716   0.00000  Uiso   1.00
H490   H     0.52693   0.84516   0.88687   0.00000  Uiso   1.00
H491   H     0.48343   0.82591   0.87530   0.00000  Uiso   1.00
H492   H     0.50661   0.83860   0.11047   0.00000  Uiso   1.00
H493   H     0.48579   0.85626   0.12925   0.00000  Uiso   1.00
H494   H     0.46440   0.82082   0.08545   0.00000  Uiso   1.00
O495   O     0.44169   0.78759   0.97292   0.00000  Uiso   1.00
O496   O     0.55623   0.85192   0.01153   0.00000  Uiso   1.00
H497   H     0.58215   0.82296   0.02031   0.00000  Uiso   1.00
H498   H     0.41908   0.72987   0.96527   0.00000  Uiso   1.00
H499   H     0.58446   0.77774   0.02275   0.00000  Uiso   1.00
H500   H     0.51585   0.66216   0.85459   0.00000  Uiso   1.00
H501   H     0.52693   0.69619   0.89664   0.00000  Uiso   1.00
H502   H     0.53923   0.63144   0.91061   0.00000  Uiso   1.00
H503   H     0.42167   0.68446   0.96424   0.00000  Uiso   1.00
H504   H     0.47993   0.62991   0.12047   0.00000  Uiso   1.00
O505   O     0.44916   0.65562   0.96812   0.00000  Uiso   1.00
O506   O     0.56266   0.72142   0.01931   0.00000  Uiso   1.00
H507   H     0.55712   0.68846   0.88589   0.00000  Uiso   1.00
H508   H     0.50176   0.10623   0.92512   0.00000  Uiso   1.00
C509   C     0.48146   0.39065   1.00879   0.00000  Uiso   1.00
C510   C     0.48247   0.37730   0.05997   0.00000  Uiso   1.00
C511   C     0.49069   0.35549   0.06091   0.00000  Uiso   1.00
C512   C     0.49841   0.34713   0.00998   0.00000  Uiso   1.00
C513   C     0.49953   0.36205   0.95931   0.00000  Uiso   1.00
C514   C     0.49068   0.38329   0.95906   0.00000  Uiso   1.00
C515   C     0.49087   0.34085   0.11597   0.00000  Uiso   1.00
C516   C     0.50996   0.35537   0.90540   0.00000  Uiso   1.00
C517   C     0.47091   0.29174   0.99682   0.00000  Uiso   1.00
C518   C     0.47016   0.26445   0.99596   0.00000  Uiso   1.00
C519   C     0.49935   0.26640   0.00618   0.00000  Uiso   1.00
C520   C     0.52889   0.29567   0.01686   0.00000  Uiso   1.00
C521   C     0.52848   0.32261   0.01707   0.00000  Uiso   1.00
C522   C     0.44076   0.23527   0.98570   0.00000  Uiso   1.00
C523   C     0.44030   0.20829   0.98472   0.00000  Uiso   1.00
C524   C     0.46918   0.20984   0.99472   0.00000  Uiso   1.00
C525   C     0.49881   0.23892   0.00614   0.00000  Uiso   1.00
C526   C     0.52772   0.24050   0.01799   0.00000  Uiso   1.00
C527   C     0.55719   0.26985   0.02852   0.00000  Uiso   1.00
C528   C     0.55779   0.29711   0.02758   0.00000  Uiso   1.00
C529   C     0.46899   0.18283   0.99423   0.00000  Uiso   1.00
C530   C     0.52614   0.21254   0.01955   0.00000  Uiso   1.00
C531   C     0.49486   0.15553   0.01011   0.00000  Uiso   1.00
C532   C     0.47197   0.14604   0.10828   0.00000  Uiso   1.00
C533   C     0.47471   0.10611   0.05446   0.00000  Uiso   1.00
C534   C     0.51894   0.16505   0.91398   0.00000  Uiso   1.00
C535   C     0.49548   0.11434   0.96133   0.00000  Uiso   1.00
C536   C     0.50285   0.14466   0.96296   0.00000  Uiso   1.00
C537   C     0.48085   0.13599   0.05636   0.00000  Uiso   1.00
C538   C     0.48114   0.09476   1.00659   0.00000  Uiso   1.00
H539   H     0.54220   0.18672   0.93022   0.00000  Uiso   1.00
N540   N     0.49966   0.32010   0.00760   0.00000  Uiso   1.00
N541   N     0.49701   0.18440   0.00767   0.00000  Uiso   1.00
H542   H     0.50274   0.17096   0.89243   0.00000  Uiso   1.00
H543   H     0.47682   0.38385   0.09905   0.00000  Uiso   1.00
H544   H     0.49168   0.39463   0.91990   0.00000  Uiso   1.00
H545   H     0.48715   0.35169   0.15296   0.00000  Uiso   1.00
H546   H     0.47126   0.31567   0.11233   0.00000  Uiso   1.00
H547   H     0.51464   0.34386   0.12473   0.00000  Uiso   1.00
H548   H     0.49204   0.33094   0.88937   0.00000  Uiso   1.00
H549   H     0.51210   0.37089   0.87105   0.00000  Uiso   1.00
H550   H     0.53415   0.35931   0.91439   0.00000  Uiso   1.00
O551   O     0.55695   0.35136   0.02735   0.00000  Uiso   1.00
O552   O     0.44246   0.28992   0.98723   0.00000  Uiso   1.00
H553   H     0.41795   0.23315   0.97857   0.00000  Uiso   1.00
H554   H     0.58091   0.31927   0.03580   0.00000  Uiso   1.00
H555   H     0.41715   0.18619   0.97678   0.00000  Uiso   1.00
H556   H     0.48725   0.14760   0.14662   0.00000  Uiso   1.00
H557   H     0.47561   0.16898   0.10438   0.00000  Uiso   1.00
H558   H     0.46448   0.09154   0.09029   0.00000  Uiso   1.00
H559   H     0.57989   0.27188   0.03745   0.00000  Uiso   1.00
H560   H     0.52463   0.15342   0.88162   0.00000  Uiso   1.00
O561   O     0.55379   0.21349   0.03376   0.00000  Uiso   1.00
O562   O     0.44030   0.15450   0.98122   0.00000  Uiso   1.00
H563   H     0.44602   0.12864   0.11488   0.00000  Uiso   1.00
loop_
_geom_bond_atom_site_label_1
_geom_bond_atom_site_label_2
_geom_bond_distance
_geom_bond_site_symmetry_2
_ccdc_geom_bond_type
C0     O4      1.287   .     A
C0     O5      1.278   1_554 A
C0     C509    1.484   1_554 S
Ho1    O4      2.193   .     S
Ho1    O6      2.214   .     S
Ho1    O7      2.112   .     S
Ho1    O10     2.171   .     S
Ho1    O17     2.223   .     S
Ho1    O5      2.165   1_554 S
Ho1    O15     2.164   1_554 S
C2     O12     1.287   .     A
C2     O13     1.278   1_556 A
C2     C482    1.477   1_556 S
Ho3    O11     2.213   .     S
Ho3    O12     2.189   .     S
Ho3    O14     2.186   .     S
Ho3    O15     2.151   .     S
Ho3    O16     2.168   .     S
Ho3    O7      2.133   1_556 S
Ho3    O13     2.155   1_556 S
O5     C0      1.278   1_556 A
O5     Ho1     2.165   1_556 S
O6     C8      1.229   .     D
O7     C8      1.382   .     S
O7     Ho3     2.133   1_554 S
C8     C61     1.465   .     S
C9     O14     1.230   .     D
C9     O15     1.394   .     S
C9     C90     1.459   .     S
O10    C19     1.292   .     A
O11    C19     1.304   1_556 A
O13    C2      1.278   1_554 A
O13    Ho3     2.155   1_554 S
O15    Ho1     2.164   1_556 S
O16    C18     1.292   .     A
O17    C18     1.309   1_554 A
C18    C229    1.461   .     S
C18    O17     1.309   1_556 A
C19    O11     1.304   1_554 A
C19    C370    1.461   1_554 S
C20    O24     1.283   .     A
C20    C258    1.489   .     S
C20    O25     1.276   1_554 A
Ho21   O24     2.205   .     S
Ho21   O26     2.211   .     S
Ho21   O30     2.174   .     S
Ho21   O25     2.173   1_554 S
Ho21   O27     2.125   1_455 S
Ho21   O35     2.167   1_554 S
Ho21   O37     2.233   1_455 S
C22    O32     1.285   .     A
C22    C341    1.480   .     S
C22    O33     1.276   1_556 A
Ho23   O32     2.203   .     S
Ho23   O34     2.189   .     S
Ho23   O36     2.163   .     S
Ho23   O27     2.135   1_556 S
Ho23   O31     2.218   1_655 S
Ho23   O33     2.168   1_556 S
Ho23   O35     2.161   1_655 S
O25    C20     1.276   1_556 A
O25    Ho21    2.173   1_556 S
O26    C28     1.238   1_455 D
O27    C28     1.382   .     S
O27    Ho21    2.125   1_655 S
O27    Ho23    2.135   1_554 S
C28    O26     1.238   1_655 D
C28    C146    1.459   1_655 S
C29    O35     1.390   .     S
C29    O34     1.228   1_455 D
C29    C117    1.464   1_455 S
O30    C39     1.292   .     A
O31    Ho23    2.218   1_455 S
O31    C39     1.303   1_556 A
O33    C22     1.276   1_554 A
O33    Ho23    2.168   1_554 S
O34    C29     1.228   1_655 D
O35    Ho21    2.167   1_556 S
O35    Ho23    2.161   1_455 S
O36    C38     1.296   .     A
O37    Ho21    2.233   1_655 S
O37    C38     1.313   1_554 A
C38    C285    1.485   .     S
C38    O37     1.313   1_556 A
C39    O31     1.303   1_554 A
C39    C426    1.476   1_554 S
C40    O44     1.285   .     A
C40    C453    1.481   .     S
C40    O45     1.279   1_556 A
Ho41   O44     2.189   .     S
Ho41   O46     2.167   .     S
Ho41   O50     2.170   .     S
Ho41   O45     2.174   1_556 S
Ho41   O47     2.163   1_565 S
Ho41   O55     2.142   1_556 S
Ho41   O57     2.238   1_565 S
C42    O52     1.288   .     A
C42    O53     1.280   1_554 A
C42    C538    1.482   1_554 S
Ho43   O52     2.190   .     S
Ho43   O54     2.200   .     S
Ho43   O56     2.162   .     S
Ho43   O47     2.169   1_554 S
Ho43   O51     2.218   1_545 S
Ho43   O53     2.163   1_554 S
Ho43   O55     2.140   1_545 S
O45    C40     1.279   1_554 A
O45    Ho41    2.174   1_554 S
O46    C48     1.232   1_565 D
O47    C48     1.397   .     S
O47    Ho41    2.163   1_545 S
O47    Ho43    2.169   1_556 S
C48    C202    1.470   .     S
C48    O46     1.232   1_545 D
C49    O54     1.229   .     D
C49    O55     1.393   1_545 S
C49    C173    1.472   1_545 S
O50    C59     1.297   .     A
O51    Ho43    2.218   1_565 S
O51    C59     1.309   1_554 A
O53    C42     1.280   1_556 A
O53    Ho43    2.163   1_556 S
O55    Ho41    2.142   1_554 S
O55    Ho43    2.140   1_565 S
O55    C49     1.393   1_565 S
O56    C58     1.288   .     A
O57    Ho41    2.238   1_545 S
O57    C58     1.305   1_556 A
C58    C314    1.490   .     S
C58    O57     1.305   1_554 A
C59    O51     1.309   1_556 A
C59    C397    1.477   1_556 S
H60    C87     1.085   .     S
C61    C62     1.398   .     A
C61    C66     1.397   .     A
C62    C63     1.405   .     A
C62    H95     1.083   .     S
C63    C64     1.413   .     A
C63    C67     1.506   .     S
C64    C65     1.414   .     A
C64    N92     1.441   .     S
C65    C66     1.403   .     A
C65    C68     1.505   .     S
C66    H96     1.084   .     S
C67    H97     1.112   .     S
C67    H98     1.110   .     S
C67    H99     1.112   .     S
C68    H100    1.111   .     S
C68    H101    1.113   .     S
C68    H102    1.111   .     S
C69    C70     1.403   .     A
C69    N92     1.370   .     A
C69    O104    1.374   .     S
C70    C71     1.407   .     A
C70    C74     1.405   .     A
C71    C72     1.411   .     A
C71    C77     1.414   .     A
C72    C73     1.408   .     A
C72    C80     1.405   .     A
C73    N92     1.370   .     A
C73    O103    1.373   .     S
C74    C75     1.397   .     A
C74    H105    1.083   .     S
C75    C76     1.405   .     A
C75    H107    1.083   .     S
C76    C77     1.410   .     A
C76    C81     1.407   .     A
C77    C78     1.406   .     A
C78    C79     1.405   .     A
C78    C82     1.402   .     A
C79    C80     1.397   .     A
C79    H111    1.083   .     S
C80    H106    1.083   .     S
C81    N93     1.371   .     A
C81    O114    1.373   .     S
C82    N93     1.371   .     A
C82    O113    1.374   .     S
C83    C88     1.418   .     A
C83    C89     1.418   .     A
C83    N93     1.441   .     S
C84    C89     1.506   .     S
C84    H108    1.112   .     S
C84    H109    1.107   .     S
C84    H115    1.112   .     S
C85    C89     1.400   .     A
C85    C90     1.394   .     A
C85    H110    1.085   .     S
C86    C88     1.506   .     S
C86    H91     1.110   .     S
C86    H94     1.110   .     S
C86    H112    1.112   .     S
C87    C88     1.402   .     A
C87    C90     1.397   .     A
H116   C143    1.082   .     S
C117   C122    1.399   .     A
C117   C118    1.395   1_655 A
C117   C29     1.464   1_655 S
C118   C119    1.403   .     A
C118   H151    1.084   .     S
C118   C117    1.395   1_455 A
C119   C123    1.505   .     S
C119   C120    1.414   1_455 A
C120   C121    1.414   .     A
C120   N148    1.444   .     S
C120   C119    1.414   1_655 A
C121   C122    1.405   .     A
C121   C124    1.506   .     S
C122   H152    1.082   .     S
C123   H153    1.112   .     S
C123   H154    1.112   .     S
C123   H155    1.111   .     S
C124   H156    1.111   .     S
C124   H157    1.112   .     S
C124   H158    1.110   .     S
C125   C126    1.408   .     A
C125   O160    1.372   .     S
C125   N148    1.371   1_455 A
C126   C130    1.405   .     A
C126   C127    1.409   1_455 A
C127   C128    1.407   .     A
C127   C126    1.409   1_655 A
C127   C133    1.416   1_655 A
C128   C129    1.406   .     A
C128   C136    1.406   .     A
C129   N148    1.370   .     A
C129   O159    1.372   .     S
C130   C131    1.397   .     A
C130   H161    1.083   .     S
C131   C132    1.405   .     A
C131   H163    1.083   .     S
C132   C133    1.407   .     A
C132   C137    1.405   .     A
C133   C127    1.416   1_455 A
C133   C134    1.409   1_455 A
C134   C135    1.406   .     A
C134   C138    1.411   .     A
C134   C133    1.409   1_655 A
C135   C136    1.399   .     A
C135   H167    1.083   .     S
C136   H162    1.083   .     S
C137   N149    1.371   .     A
C137   O170    1.373   .     S
C138   O169    1.372   .     S
C138   N149    1.373   1_655 A
C139   C145    1.419   .     A
C139   N149    1.448   .     S
C139   C144    1.417   1_455 A
C140   C145    1.507   .     S
C140   H164    1.113   .     S
C140   H165    1.111   .     S
C140   H171    1.113   .     S
C141   C145    1.404   .     A
C141   C146    1.397   .     A
C141   H166    1.082   .     S
C142   C144    1.508   .     S
C142   H147    1.112   .     S
C142   H150    1.112   .     S
C142   H168    1.112   .     S
C143   C144    1.408   .     A
C143   C146    1.400   1_655 A
C144   C139    1.417   1_655 A
C146   C143    1.400   1_455 A
C146   C28     1.459   1_455 S
N148   C125    1.371   1_655 A
N149   C138    1.373   1_455 A
H172   C199    1.085   .     S
C173   C174    1.400   .     A
C173   C178    1.400   1_565 A
C173   C49     1.472   1_565 S
C174   C175    1.404   .     A
C174   H207    1.081   .     S
C175   C176    1.412   .     A
C175   C179    1.504   .     S
C176   N204    1.441   .     S
C176   C177    1.413   1_565 A
C177   C178    1.401   .     A
C177   C180    1.506   .     S
C177   C176    1.413   1_545 A
C178   H208    1.086   .     S
C178   C173    1.400   1_545 A
C179   H209    1.112   .     S
C179   H210    1.110   .     S
C179   H211    1.110   .     S
C180   H212    1.111   .     S
C180   H213    1.111   .     S
C180   H214    1.111   1_545 S
C181   C182    1.403   .     A
C181   O216    1.373   .     S
C181   N204    1.369   1_545 A
C182   C186    1.404   .     A
C182   C183    1.408   1_545 A
C183   C184    1.409   .     A
C183   C189    1.414   .     A
C183   C182    1.408   1_565 A
C184   C185    1.408   .     A
C184   C192    1.406   .     A
C185   N204    1.370   .     A
C185   O215    1.373   .     S
C186   C187    1.396   .     A
C186   H217    1.083   .     S
C187   C188    1.405   .     A
C187   H219    1.083   .     S
C188   C193    1.405   .     A
C188   C189    1.409   1_545 A
C189   C190    1.408   .     A
C189   C188    1.409   1_565 A
C190   C191    1.405   .     A
C190   C194    1.404   .     A
C191   C192    1.398   .     A
C191   H223    1.083   .     S
C192   H218    1.083   .     S
C193   N205    1.370   .     A
C193   O226    1.373   .     S
C194   O225    1.373   .     S
C194   N205    1.371   1_565 A
C195   C200    1.419   .     A
C195   C201    1.416   .     A
C195   N205    1.441   .     S
C196   H220    1.113   .     S
C196   C201    1.507   1_565 S
C196   H221    1.107   1_565 S
C196   H227    1.113   1_565 S
C197   C201    1.394   .     A
C197   C202    1.393   .     A
C197   H222    1.081   .     S
C198   C200    1.507   .     S
C198   H206    1.111   .     S
C198   H224    1.113   .     S
C198   H203    1.110   1_545 S
C199   C200    1.409   .     A
C199   C202    1.403   .     A
C201   C196    1.507   1_545 S
H203   C198    1.110   1_565 S
N204   C181    1.369   1_565 A
N205   C194    1.371   1_545 A
H214   C180    1.111   1_565 S
H221   C196    1.107   1_545 S
H227   C196    1.113   1_545 S
H228   C255    1.084   .     S
C229   C230    1.399   .     A
C229   C234    1.401   1_556 A
C230   C231    1.406   .     A
C230   H263    1.083   .     S
C231   C232    1.414   .     A
C231   C235    1.504   .     S
C232   N260    1.441   .     S
C232   C233    1.410   1_556 A
C233   C234    1.400   .     A
C233   C236    1.505   .     S
C233   C232    1.410   1_554 A
C234   H264    1.084   .     S
C234   C229    1.401   1_554 A
C235   H265    1.111   .     S
C235   H266    1.110   .     S
C235   H267    1.112   .     S
C236   H268    1.109   .     S
C236   H269    1.112   .     S
C236   H270    1.111   .     S
C237   C238    1.398   .     A
C237   O272    1.374   .     S
C237   N260    1.368   1_554 A
C238   C242    1.402   .     A
C238   C239    1.408   1_554 A
C239   C240    1.410   .     A
C239   C245    1.416   .     A
C239   C238    1.408   1_556 A
C240   C241    1.414   .     A
C240   C248    1.409   .     A
C241   N260    1.373   .     A
C241   O271    1.372   .     S
C242   C243    1.391   .     A
C242   H273    1.083   .     S
C243   C244    1.403   .     A
C243   H275    1.082   .     S
C244   C249    1.400   .     A
C244   C245    1.408   1_554 A
C245   C246    1.408   .     A
C245   C244    1.408   1_556 A
C246   C247    1.410   .     A
C246   C250    1.416   .     A
C247   C248    1.405   .     A
C247   H279    1.084   .     S
C248   H274    1.084   .     S
C249   O282    1.374   .     S
C249   N261    1.369   1_554 A
C250   N261    1.376   .     A
C250   O281    1.372   .     S
C251   C257    1.417   .     A
C251   N261    1.448   .     S
C251   C256    1.416   1_556 A
C252   C257    1.506   .     S
C252   H276    1.110   .     S
C252   H277    1.109   .     S
C252   H283    1.111   .     S
C253   C257    1.402   .     A
C253   H278    1.084   .     S
C253   C258    1.401   1_556 A
C254   C256    1.507   .     S
C254   H259    1.110   .     S
C254   H262    1.110   .     S
C254   H280    1.110   .     S
C255   C256    1.412   .     A
C255   C258    1.407   .     A
C256   C251    1.416   1_554 A
C258   C253    1.401   1_554 A
N260   C237    1.368   1_556 A
N261   C249    1.369   1_556 A
H284   C311    1.083   .     S
C285   C286    1.402   .     A
C285   C290    1.411   .     A
C286   C287    1.411   .     A
C286   H319    1.083   .     S
C287   C288    1.415   .     A
C287   C291    1.503   .     S
C288   C289    1.403   .     A
C288   N316    1.438   .     S
C289   C290    1.390   .     A
C289   C292    1.507   .     S
C290   H320    1.083   1_556 S
C291   H321    1.110   .     S
C291   H323    1.111   .     S
C291   H322    1.110   1_556 S
C292   H325    1.112   .     S
C292   H326    1.109   .     S
C292   H324    1.109   1_556 S
C293   C294    1.402   .     A
C293   O328    1.373   .     S
C293   N316    1.368   1_554 A
C294   C298    1.404   .     A
C294   C295    1.408   1_554 A
C295   C296    1.409   .     A
C295   C301    1.412   .     A
C295   C294    1.408   1_556 A
C296   C297    1.405   .     A
C296   C304    1.405   .     A
C297   N316    1.369   .     A
C297   O327    1.372   .     S
C298   C299    1.396   .     A
C298   H329    1.083   .     S
C299   C300    1.405   .     A
C299   H331    1.083   .     S
C300   C305    1.405   .     A
C300   C301    1.409   1_554 A
C301   C302    1.407   .     A
C301   C300    1.409   1_556 A
C302   C303    1.406   .     A
C302   C306    1.404   .     A
C303   C304    1.397   .     A
C303   H335    1.083   .     S
C304   H330    1.083   .     S
C305   O338    1.372   .     S
C305   N317    1.370   1_554 A
C306   N317    1.371   .     A
C306   O337    1.373   .     S
C307   C312    1.406   .     A
C307   N317    1.443   .     S
C307   C313    1.421   1_556 A
C308   C313    1.506   .     S
C308   H333    1.109   .     S
C308   H339    1.110   .     S
C308   H332    1.109   1_554 S
C309   C313    1.414   .     A
C309   C314    1.403   .     A
C309   H334    1.084   .     S
C310   C312    1.509   .     S
C310   H315    1.108   .     S
C310   H336    1.112   .     S
C310   H318    1.109   1_556 S
C311   C312    1.391   .     A
C311   C314    1.411   1_556 A
C313   C307    1.421   1_554 A
C314   C311    1.411   1_554 A
N316   C293    1.368   1_556 A
N317   C305    1.370   1_556 A
H318   C310    1.109   1_554 S
H320   C290    1.083   1_554 S
H322   C291    1.110   1_554 S
H324   C292    1.109   1_554 S
H332   C308    1.109   1_556 S
H340   C367    1.086   .     S
C341   C342    1.400   .     A
C341   C346    1.406   1_556 A
C342   C343    1.409   .     A
C342   H375    1.084   .     S
C343   C344    1.415   .     A
C343   C347    1.504   .     S
C344   N372    1.443   .     S
C344   C345    1.411   1_556 A
C345   C346    1.405   .     A
C345   C348    1.506   .     S
C345   C344    1.411   1_554 A
C346   H376    1.085   .     S
C346   C341    1.406   1_554 A
C347   H377    1.110   .     S
C347   H378    1.109   .     S
C347   H379    1.110   .     S
C348   H380    1.110   .     S
C348   H381    1.111   .     S
C348   H382    1.109   .     S
C349   C350    1.410   .     A
C349   N372    1.372   .     A
C349   O384    1.372   .     S
C350   C351    1.408   .     A
C350   C354    1.408   .     A
C351   C357    1.414   .     A
C351   C352    1.409   1_556 A
C352   C353    1.403   .     A
C352   C360    1.404   .     A
C352   C351    1.409   1_554 A
C353   O383    1.373   .     S
C353   N372    1.369   1_554 A
C354   C355    1.401   .     A
C354   H385    1.083   .     S
C355   C356    1.406   .     A
C355   H387    1.084   .     S
C356   C357    1.410   .     A
C356   C361    1.410   .     A
C357   C358    1.407   1_556 A
C358   C359    1.403   .     A
C358   C362    1.399   .     A
C358   C357    1.407   1_554 A
C359   C360    1.393   .     A
C359   H391    1.083   .     S
C360   H386    1.082   .     S
C361   N373    1.372   .     A
C361   O394    1.373   .     S
C362   O393    1.374   .     S
C362   N373    1.369   1_554 A
C363   C369    1.419   .     A
C363   N373    1.439   .     S
C363   C368    1.413   1_556 A
C364   C369    1.505   .     S
C364   H388    1.110   .     S
C364   H389    1.107   .     S
C364   H395    1.112   .     S
C365   C369    1.404   .     A
C365   C370    1.397   .     A
C365   H390    1.084   .     S
C366   C368    1.507   .     S
C366   H371    1.109   .     S
C366   H374    1.111   .     S
C366   H392    1.112   .     S
C367   C368    1.395   .     A
C367   C370    1.400   1_554 A
C368   C363    1.413   1_554 A
C370   C367    1.400   1_556 A
C370   C19     1.461   1_556 S
N372   C353    1.369   1_556 A
N373   C362    1.369   1_556 A
H396   C423    1.084   .     S
C397   C402    1.407   .     A
C397   C398    1.400   1_554 A
C397   C59     1.477   1_554 S
C398   C399    1.409   .     A
C398   H431    1.082   .     S
C398   C397    1.400   1_556 A
C399   C403    1.504   .     S
C399   C400    1.415   1_556 A
C400   C401    1.406   .     A
C400   N428    1.437   .     S
C400   C399    1.415   1_554 A
C401   C402    1.392   .     A
C401   C404    1.507   .     S
C402   H432    1.084   .     S
C403   H433    1.110   .     S
C403   H434    1.110   .     S
C403   H435    1.111   1_556 S
C404   H436    1.110   .     S
C404   H437    1.112   .     S
C404   H438    1.110   .     S
C405   C406    1.405   .     A
C405   O440    1.373   .     S
C405   N428    1.369   1_556 A
C406   C410    1.406   .     A
C406   C407    1.408   1_556 A
C407   C408    1.409   .     A
C407   C406    1.408   1_554 A
C407   C413    1.412   1_554 A
C408   C409    1.401   .     A
C408   C416    1.403   .     A
C409   N428    1.367   .     A
C409   O439    1.373   .     S
C410   C411    1.398   .     A
C410   H441    1.083   .     S
C411   C412    1.406   .     A
C411   H443    1.083   .     S
C412   C413    1.409   .     A
C412   C417    1.408   .     A
C413   C407    1.412   1_556 A
C413   C414    1.407   1_556 A
C414   C415    1.404   .     A
C414   C418    1.401   .     A
C414   C413    1.407   1_554 A
C415   C416    1.393   .     A
C415   H447    1.082   .     S
C416   H442    1.082   .     S
C417   N429    1.371   .     A
C417   O450    1.372   .     S
C418   O449    1.373   .     S
C418   N429    1.369   1_554 A
C419   C425    1.419   .     A
C419   N429    1.442   .     S
C419   C424    1.411   1_556 A
C420   C425    1.506   .     S
C420   H444    1.110   .     S
C420   H445    1.108   .     S
C420   H451    1.111   .     S
C421   C425    1.408   .     A
C421   C426    1.399   .     A
C421   H446    1.083   .     S
C422   C424    1.508   .     S
C422   H427    1.109   .     S
C422   H430    1.111   .     S
C422   H448    1.112   .     S
C423   C424    1.396   .     A
C423   C426    1.404   1_554 A
C424   C419    1.411   1_554 A
C426   C423    1.404   1_556 A
C426   C39     1.476   1_556 S
N428   C405    1.369   1_554 A
N429   C418    1.369   1_556 A
H435   C403    1.111   1_554 S
H452   C479    1.084   .     S
C453   C454    1.403   .     A
C453   C458    1.405   1_556 A
C454   C455    1.407   .     A
C454   H487    1.081   .     S
C455   C456    1.413   .     A
C455   C459    1.505   .     S
C456   N484    1.444   .     S
C456   C457    1.410   1_556 A
C457   C458    1.403   .     A
C457   C460    1.506   .     S
C457   C456    1.410   1_554 A
C458   H488    1.084   .     S
C458   C453    1.405   1_554 A
C459   H489    1.110   .     S
C459   H490    1.111   .     S
C459   H491    1.111   .     S
C460   H492    1.110   .     S
C460   H493    1.111   .     S
C460   H494    1.111   .     S
C461   C462    1.399   .     A
C461   O496    1.374   .     S
C461   N484    1.369   1_554 A
C462   C466    1.403   .     A
C462   C463    1.408   1_554 A
C463   C464    1.409   .     A
C463   C469    1.415   .     A
C463   C462    1.408   1_556 A
C464   C465    1.415   .     A
C464   C472    1.409   .     A
C465   N484    1.373   .     A
C465   O495    1.372   .     S
C466   C467    1.392   .     A
C466   H497    1.083   .     S
C467   C468    1.403   .     A
C467   H499    1.082   .     S
C468   C473    1.400   .     A
C468   C469    1.409   1_554 A
C469   C470    1.408   .     A
C469   C468    1.409   1_556 A
C470   C471    1.408   .     A
C470   C474    1.412   .     A
C471   C472    1.403   .     A
C471   H503    1.084   .     S
C472   H498    1.084   .     S
C473   O506    1.374   .     S
C473   N485    1.369   1_554 A
C474   N485    1.373   .     A
C474   O505    1.373   .     S
C475   C481    1.420   .     A
C475   N485    1.444   .     S
C475   C480    1.413   1_556 A
C476   C481    1.507   .     S
C476   H500    1.111   .     S
C476   H501    1.109   .     S
C476   H507    1.112   .     S
C477   C481    1.406   .     A
C477   H502    1.083   .     S
C477   C482    1.399   1_556 A
C478   C480    1.507   .     S
C478   H483    1.110   .     S
C478   H486    1.110   .     S
C478   H504    1.113   .     S
C479   C480    1.401   .     A
C479   C482    1.403   .     A
C480   C475    1.413   1_554 A
C482   C477    1.399   1_554 A
C482   C2      1.477   1_554 S
N484   C461    1.369   1_556 A
N485   C473    1.369   1_556 A
H508   C535    1.083   .     S
C509   C514    1.406   .     A
C509   C510    1.402   1_556 A
C509   C0      1.484   1_556 S
C510   C511    1.409   .     A
C510   H543    1.082   .     S
C510   C509    1.402   1_554 A
C511   C512    1.414   .     A
C511   C515    1.505   .     S
C512   N540    1.445   .     S
C512   C513    1.411   1_554 A
C513   C514    1.403   .     A
C513   C516    1.506   .     S
C513   C512    1.411   1_556 A
C514   H544    1.083   .     S
C515   H545    1.111   .     S
C515   H546    1.111   .     S
C515   H547    1.111   .     S
C516   H548    1.110   .     S
C516   H549    1.112   .     S
C516   H550    1.111   .     S
C517   C518    1.401   .     A
C517   O552    1.374   .     S
C517   N540    1.369   1_556 A
C518   C522    1.403   .     A
C518   C519    1.408   1_556 A
C519   C520    1.409   .     A
C519   C525    1.417   .     A
C519   C518    1.408   1_554 A
C520   C521    1.415   .     A
C520   C528    1.408   .     A
C521   N540    1.373   .     A
C521   O551    1.372   .     S
C522   C523    1.393   .     A
C522   H553    1.083   .     S
C523   C524    1.403   .     A
C523   H555    1.082   .     S
C524   C529    1.402   .     A
C524   C525    1.408   1_556 A
C525   C526    1.408   .     A
C525   C524    1.408   1_554 A
C526   C527    1.410   .     A
C526   C530    1.415   .     A
C527   C528    1.405   .     A
C527   H559    1.084   .     S
C528   H554    1.084   .     S
C529   O562    1.374   .     S
C529   N541    1.370   1_556 A
C530   N541    1.375   .     A
C530   O561    1.372   .     S
C531   C537    1.420   .     A
C531   N541    1.449   .     S
C531   C536    1.414   1_554 A
C532   C537    1.507   .     S
C532   H556    1.111   .     S
C532   H557    1.109   .     S
C532   H563    1.112   .     S
C533   C537    1.408   .     A
C533   H558    1.083   .     S
C533   C538    1.399   1_554 A
C534   C536    1.507   .     S
C534   H539    1.110   .     S
C534   H542    1.110   .     S
C534   H560    1.112   .     S
C535   C536    1.407   .     A
C535   C538    1.405   .     A
C536   C531    1.414   1_556 A
C538   C533    1.399   1_556 A
C538   C42     1.482   1_556 S
N540   C517    1.369   1_554 A
N541   C529    1.370   1_554 A
