data_kag+N505+E161
_audit_creation_date              2025-01-21
_audit_creation_method            'Materials Studio'
_symmetry_space_group_name_H-M    'P1'
_symmetry_Int_Tables_number       1
_symmetry_cell_setting            triclinic
loop_
_symmetry_equiv_pos_as_xyz
  x,y,z
_cell_length_a                    48.7008
_cell_length_b                    44.0722
_cell_length_c                    25.7825
_cell_angle_alpha                 90.4109
_cell_angle_beta                  89.9019
_cell_angle_gamma                 109.8783
loop_
_atom_site_label
_atom_site_type_symbol
_atom_site_fract_x
_atom_site_fract_y
_atom_site_fract_z
_atom_site_U_iso_or_equiv
_atom_site_adp_type
_atom_site_occupancy
Yb0    Yb    0.54364   0.50383   0.94643   0.00000  Uiso   1.00
Yb1    Yb    0.46444   0.50007   0.05513   0.00000  Uiso   1.00
C2     C     0.42016   0.51001   0.02709   0.00000  Uiso   1.00
O3     O     0.51356   0.48607   0.88557   0.00000  Uiso   1.00
O4     O     0.55891   0.51741   0.87165   0.00000  Uiso   1.00
O5     O     0.53055   0.54577  -0.04852   0.00000  Uiso   1.00
O6     O     0.48887   0.51697   0.98519   0.00000  Uiso   1.00
O7     O     0.56692   0.47169   0.94584   0.00000  Uiso   1.00
O8     O     0.58341   0.51866  -0.01385   0.00000  Uiso   1.00
O9     O     0.49465   0.51954   0.11504   0.00000  Uiso   1.00
O10    O     0.44935   0.48845   0.13054   0.00000  Uiso   1.00
C11    C     0.53344   0.50182   0.85291   0.00000  Uiso   1.00
O12    O     0.51988   0.48560   0.01794   0.00000  Uiso   1.00
O13    O     0.47775   0.45815   1.05218   0.00000  Uiso   1.00
O14    O     0.44074   0.53203   0.05110   0.00000  Uiso   1.00
C15    C     0.50661   0.54451  -0.02747   0.00000  Uiso   1.00
O16    O     0.42475   0.48371   1.01509   0.00000  Uiso   1.00
C17    C     0.58777   0.49261   0.97145   0.00000  Uiso   1.00
C18    C     0.47496   0.50451   0.14846   0.00000  Uiso   1.00
C19    C     0.50143   0.45834   0.03096   0.00000  Uiso   1.00
Yb20   Yb    0.03185   0.54238   0.95225   0.00000  Uiso   1.00
Yb21   Yb    0.97523   0.45654   0.05449   0.00000  Uiso   1.00
C22    C     0.92763   0.41743   0.02843   0.00000  Uiso   1.00
O23    O     0.02307   0.51101   0.88773   0.00000  Uiso   1.00
O24    O     1.03278   0.56309   0.87856   0.00000  Uiso   1.00
O25    O     0.98539   0.53423   0.96033   0.00000  Uiso   1.00
O26    O     0.97868   0.48496   0.98520   0.00000  Uiso   1.00
O27    O     0.07767   0.56043   0.95373   0.00000  Uiso   1.00
O28    O     0.05204   0.58384  -0.00165   0.00000  Uiso   1.00
O29    O     0.98655   0.49009   0.11627   0.00000  Uiso   1.00
O30    O    -0.02555   0.43801   0.12952   0.00000  Uiso   1.00
C31    C     0.02630   0.53498   0.85698   0.00000  Uiso   1.00
O32    O     0.02871   0.51074   0.01761   0.00000  Uiso   1.00
O33    O     0.02086   0.46181   0.04530   0.00000  Uiso   1.00
O34    O     0.92968   0.44224   0.05706   0.00000  Uiso   1.00
C35    C     0.96838   0.50744   0.97784   0.00000  Uiso   1.00
O36    O     0.95180   0.41451   1.01250   0.00000  Uiso   1.00
C37    C     0.07742   0.58358   0.98427   0.00000  Uiso   1.00
C38    C    -0.01754   0.46682   0.14888   0.00000  Uiso   1.00
C39    C     0.03822   0.48750   0.02511   0.00000  Uiso   1.00
Yb40   Yb    0.46354   0.97121   0.05396   0.00000  Uiso   1.00
Yb41   Yb    0.54222   0.02785   0.94682   0.00000  Uiso   1.00
C42    C     0.58449   0.07549   0.96850   0.00000  Uiso   1.00
O43    O     0.49387   0.97646   0.11425   0.00000  Uiso   1.00
O44    O     0.44817  -0.02810   0.12959   0.00000  Uiso   1.00
O45    O     0.47530   0.02290   0.04945   0.00000  Uiso   1.00
O46    O     0.51870   0.02845   0.01872   0.00000  Uiso   1.00
O47    O     0.44243   0.92101   0.05081   0.00000  Uiso   1.00
O48    O     0.42367   0.95421   1.01363   0.00000  Uiso   1.00
O49    O     0.51141   0.01997   0.88635   0.00000  Uiso   1.00
O50    O     0.55716   1.02463   0.87176   0.00000  Uiso   1.00
C51    C     0.47391  -0.02397   0.14765   0.00000  Uiso   1.00
O52    O     0.48841   0.97293   0.98436   0.00000  Uiso   1.00
O53    O     0.53133   0.97646   0.95455   0.00000  Uiso   1.00
O54    O     0.56249   0.07782   0.94305   0.00000  Uiso   1.00
C55    C     0.49932   0.04097   0.03003   0.00000  Uiso   1.00
O56    O     0.58254   0.04728  -0.01479   0.00000  Uiso   1.00
C57    C     0.42106   0.92497   0.02561   0.00000  Uiso   1.00
C58    C     0.53136   1.01952   0.85343   0.00000  Uiso   1.00
C59    C     0.50706   0.95942   0.97396   0.00000  Uiso   1.00
H60    H     0.48136   0.47735   0.80278   0.00000  Uiso   1.00
C61    C     0.48131   0.50448   0.20433   0.00000  Uiso   1.00
C62    C     0.50991   0.51826   0.22320   0.00000  Uiso   1.00
C63    C     0.51588   0.51709   0.27627   0.00000  Uiso   1.00
C64    C     0.49279   0.50218   0.31081   0.00000  Uiso   1.00
C65    C     0.46415   0.48770   0.29186   0.00000  Uiso   1.00
C66    C     0.45867   0.48896   0.23882   0.00000  Uiso   1.00
C67    C     0.54673   0.53137   0.29587   0.00000  Uiso   1.00
C68    C     0.43942   0.47089   0.32801   0.00000  Uiso   1.00
C69    C     0.49664   0.52912   0.39377   0.00000  Uiso   1.00
C70    C     0.49971   0.52995   0.44792   0.00000  Uiso   1.00
C71    C     0.50422   0.50372   0.47287   0.00000  Uiso   1.00
C72    C     0.50597   0.47737   0.44344   0.00000  Uiso   1.00
C73    C     0.50288   0.47767   0.38925   0.00000  Uiso   1.00
C74    C     0.49809   0.55615   0.47755   0.00000  Uiso   1.00
C75    C     0.50082   0.55629   0.53146   0.00000  Uiso   1.00
C76    C     0.50520   0.53020   0.55686   0.00000  Uiso   1.00
C77    C     0.50692   0.50382   0.52744   0.00000  Uiso   1.00
C78    C     0.51143   0.47760   0.55246   0.00000  Uiso   1.00
C79    C     0.51316   0.45145   0.52274   0.00000  Uiso   1.00
C80    C     0.51045   0.45133   0.46880   0.00000  Uiso   1.00
C81    C     0.50813   0.52985   0.61100   0.00000  Uiso   1.00
C82    C     0.51431   0.47835   0.60664   0.00000  Uiso   1.00
C83    C     0.51753   0.50514   0.68974   0.00000  Uiso   1.00
C84    C     0.57168   0.53713   0.67613   0.00000  Uiso   1.00
C85    C     0.55060   0.51875   0.76332   0.00000  Uiso   1.00
C86    C     0.46343   0.47628   0.70284   0.00000  Uiso   1.00
C87    C     0.49933   0.48898   0.77689   0.00000  Uiso   1.00
C88    C     0.49405   0.49031   0.72358   0.00000  Uiso   1.00
C89    C     0.54593   0.51990   0.71001   0.00000  Uiso   1.00
C90    C     0.52762   0.50282   0.79693   0.00000  Uiso   1.00
H91    H     0.46221   0.45716   0.67384   0.00000  Uiso   1.00
N92    N     0.49807   0.50319   0.36581   0.00000  Uiso   1.00
N93    N     0.51274   0.50426   0.63468   0.00000  Uiso   1.00
H94    H     0.45711   0.49552   0.68404   0.00000  Uiso   1.00
H95    H     0.52761   0.52962   0.19658   0.00000  Uiso   1.00
H96    H     0.43661   0.47773   0.22441   0.00000  Uiso   1.00
H97    H     0.56231   0.54217   0.26407   0.00000  Uiso   1.00
H98    H     0.54826   0.55052   0.32500   0.00000  Uiso   1.00
H99    H     0.55343   0.51225   0.31420   0.00000  Uiso   1.00
H100   H     0.43750   0.48794   0.35856   0.00000  Uiso   1.00
H101   H     0.41823   0.46146   0.30717   0.00000  Uiso   1.00
H102   H     0.44358   0.45019   0.34649   0.00000  Uiso   1.00
O103   O     0.50420   0.45209   0.35992   0.00000  Uiso   1.00
O104   O     0.49165   0.55422   0.36890   0.00000  Uiso   1.00
H105   H     0.49466   0.57660   0.45919   0.00000  Uiso   1.00
H106   H     0.51184   0.43077   0.44711   0.00000  Uiso   1.00
H107   H     0.49954   0.57691   0.55311   0.00000  Uiso   1.00
H108   H     0.58963   0.52749   0.68331   0.00000  Uiso   1.00
H109   H     0.56643   0.53419   0.63420   0.00000  Uiso   1.00
H110   H     0.57247   0.53015   0.77847   0.00000  Uiso   1.00
H111   H     0.51664   0.43102   0.54104   0.00000  Uiso   1.00
H112   H     0.44745   0.46554   0.73409   0.00000  Uiso   1.00
O113   O     0.51912   0.45321   0.63168   0.00000  Uiso   1.00
O114   O     0.50685   0.55548   0.64030   0.00000  Uiso   1.00
H115   H     0.57948   0.56331   0.68568   0.00000  Uiso   1.00
H116   H     0.00380   0.52445   0.19943   0.00000  Uiso   1.00
C117   C     1.02277   0.53041   0.80007   0.00000  Uiso   1.00
C118   C     1.01193   0.49924   0.77864   0.00000  Uiso   1.00
C119   C     1.00855   0.49452   0.72478   0.00000  Uiso   1.00
C120   C     0.01651   0.52144   0.69149   0.00000  Uiso   1.00
C121   C     0.02740   0.55289   0.71282   0.00000  Uiso   1.00
C122   C     0.03035   0.55710   0.76688   0.00000  Uiso   1.00
C123   C     0.99628   0.46081   0.70303   0.00000  Uiso   1.00
C124   C     0.03580   0.58190   0.67806   0.00000  Uiso   1.00
C125   C     0.98802   0.51481   0.61225   0.00000  Uiso   1.00
C126   C     0.98449   0.50928   0.55846   0.00000  Uiso   1.00
C127   C     0.00780   0.50594   0.52928   0.00000  Uiso   1.00
C128   C     0.03418   0.50823   0.55417   0.00000  Uiso   1.00
C129   C     0.03665   0.51370   0.60808   0.00000  Uiso   1.00
C130   C     0.95825   0.50686   0.53325   0.00000  Uiso   1.00
C131   C     0.95516   0.50111   0.47982   0.00000  Uiso   1.00
C132   C     0.97827   0.49773   0.45036   0.00000  Uiso   1.00
C133   C     0.00471   0.50021   0.47516   0.00000  Uiso   1.00
C134   C     0.02800   0.49682   0.44597   0.00000  Uiso   1.00
C135   C     0.05422   0.49918   0.47118   0.00000  Uiso   1.00
C136   C     0.05729   0.50483   0.52466   0.00000  Uiso   1.00
C137   C     0.97568   0.49197   0.39659   0.00000  Uiso   1.00
C138   C     0.02441   0.49117   0.39220   0.00000  Uiso   1.00
C139   C    -0.00475   0.48332   0.31346   0.00000  Uiso   1.00
C140   C     0.97586   0.42233   0.32782   0.00000  Uiso   1.00
C141   C     0.97958   0.44659   0.23982   0.00000  Uiso   1.00
C142   C     0.01567   0.54373   0.29933   0.00000  Uiso   1.00
C143   C    -0.00180   0.50414   0.22552   0.00000  Uiso   1.00
C144   C     0.00265   0.50970   0.27909   0.00000  Uiso   1.00
C145   C     0.98377   0.45153   0.29345   0.00000  Uiso   1.00
C146   C    -0.01325   0.47266   0.20547   0.00000  Uiso   1.00
H147   H     0.03670   0.54685   0.31907   0.00000  Uiso   1.00
N148   N     0.01374   0.51676   0.63599   0.00000  Uiso   1.00
N149   N    -0.00142   0.48898   0.36865   0.00000  Uiso   1.00
H150   H     0.00054   0.54888   0.32744   0.00000  Uiso   1.00
H151   H     1.00580   0.47852   0.80404   0.00000  Uiso   1.00
H152   H     0.03874   0.58126   0.78314   0.00000  Uiso   1.00
H153   H     0.99111   0.44241   0.73414   0.00000  Uiso   1.00
H154   H     0.97586   0.45790   0.68134   0.00000  Uiso   1.00
H155   H     1.01237   0.45621   0.67640   0.00000  Uiso   1.00
H156   H     0.01654   0.58204   0.65525   0.00000  Uiso   1.00
H157   H     0.04395   0.60479   0.70060   0.00000  Uiso   1.00
H158   H     0.05333   0.58109   0.65108   0.00000  Uiso   1.00
O159   O     0.06214   0.51577   0.63296   0.00000  Uiso   1.00
O160   O     0.96551   0.51805   0.64126   0.00000  Uiso   1.00
H161   H     0.94000   0.50932   0.55477   0.00000  Uiso   1.00
H162   H     0.07779   0.50644   0.54280   0.00000  Uiso   1.00
H163   H     0.93460   0.49932   0.46168   0.00000  Uiso   1.00
H164   H     0.98693   0.40558   0.31369   0.00000  Uiso   1.00
H165   H     0.98240   0.42842   0.36879   0.00000  Uiso   1.00
H166   H     0.97057   0.42214   0.22498   0.00000  Uiso   1.00
H167   H     0.07244   0.49664   0.44965   0.00000  Uiso   1.00
H168   H     0.01992   0.56171   0.26771   0.00000  Uiso   1.00
O169   O     0.04689   0.48785   0.36314   0.00000  Uiso   1.00
O170   O     0.95006   0.48948   0.37182   0.00000  Uiso   1.00
H171   H     0.95190   0.40965   0.32651   0.00000  Uiso   1.00
H172   H     0.48387   1.02053   0.79934   0.00000  Uiso   1.00
C173   C     0.48013  -0.01934   0.20364   0.00000  Uiso   1.00
C174   C     0.50577   0.97789   0.22430   0.00000  Uiso   1.00
C175   C     0.51138   0.98160   0.27776   0.00000  Uiso   1.00
C176   C     0.49115   0.98860   0.31089   0.00000  Uiso   1.00
C177   C     0.46581  -0.00744   0.29000   0.00000  Uiso   1.00
C178   C     0.46041  -0.01175   0.23662   0.00000  Uiso   1.00
C179   C     0.53868   0.97770   0.29935   0.00000  Uiso   1.00
C180   C     0.44460   0.00140   0.32444   0.00000  Uiso   1.00
C181   C     0.51191   0.01918   0.38854   0.00000  Uiso   1.00
C182   C     0.51579   0.02155   0.44252   0.00000  Uiso   1.00
C183   C     0.50260   0.99407   0.47317   0.00000  Uiso   1.00
C184   C     0.48609   0.96465   0.44939   0.00000  Uiso   1.00
C185   C     0.48303   0.96340   0.39523   0.00000  Uiso   1.00
C186   C     0.53238   0.05071   0.46657   0.00000  Uiso   1.00
C187   C     0.53566   0.05262   0.52039   0.00000  Uiso   1.00
C188   C     0.52232   0.02548   0.55137   0.00000  Uiso   1.00
C189   C     0.50579   0.99605   0.52766   0.00000  Uiso   1.00
C190   C     0.49242   0.96865   0.55837   0.00000  Uiso   1.00
C191   C     0.47612   0.93938   0.53421   0.00000  Uiso   1.00
C192   C     0.47299   0.93740   0.48031   0.00000  Uiso   1.00
C193   C     0.52507   0.02696   0.60555   0.00000  Uiso   1.00
C194   C     0.49576   0.97130   0.61252   0.00000  Uiso   1.00
C195   C     0.51551   1.00248   0.69034   0.00000  Uiso   1.00
C196   C     0.56322   0.99059   0.68210   0.00000  Uiso   1.00
C197   C     0.54554   1.00506   0.76648   0.00000  Uiso   1.00
C198   C     0.46766   1.01318   0.69810   0.00000  Uiso   1.00
C199   C     0.49972   1.01478   0.77525   0.00000  Uiso   1.00
C200   C     0.49475   1.00987   0.72171   0.00000  Uiso   1.00
C201   C     0.54081   0.99949   0.71321   0.00000  Uiso   1.00
C202   C     0.52532   1.01305   0.79766   0.00000  Uiso   1.00
H203   H     0.45442   0.99003   0.67959   0.00000  Uiso   1.00
N204   N     0.49566   0.99042   0.36606   0.00000  Uiso   1.00
N205   N     0.51184   1.00017   0.63494   0.00000  Uiso   1.00
H206   H     0.47374   0.03243   0.66838   0.00000  Uiso   1.00
H207   H     0.52119   0.97234   0.19881   0.00000  Uiso   1.00
H208   H     0.44082  -0.00899   0.22065   0.00000  Uiso   1.00
H209   H     0.55199   0.97178   0.26845   0.00000  Uiso   1.00
H210   H     0.55236   1.00042   0.31861   0.00000  Uiso   1.00
H211   H     0.53279   0.95785   0.32798   0.00000  Uiso   1.00
H212   H     0.45591   0.02466   0.34463   0.00000  Uiso   1.00
H213   H     0.42612   0.00408   0.30197   0.00000  Uiso   1.00
H214   H     0.43547   0.98232   0.35378   0.00000  Uiso   1.00
O215   O     0.46701   0.93496   0.37126   0.00000  Uiso   1.00
O216   O     0.52417   0.04581   0.35812   0.00000  Uiso   1.00
H217   H     0.54286   0.07213   0.44388   0.00000  Uiso   1.00
H218   H     0.46021   0.91449   0.46297   0.00000  Uiso   1.00
H219   H     0.54861   0.07546   0.53766   0.00000  Uiso   1.00
H220   H     0.56669   0.96921   0.69955   0.00000  Uiso   1.00
H221   H     0.55664   0.98454   0.64112   0.00000  Uiso   1.00
H222   H     0.56514   1.00299   0.78368   0.00000  Uiso   1.00
H223   H     0.46569   0.91795   0.55690   0.00000  Uiso   1.00
H224   H     0.45389   0.01953   0.72773   0.00000  Uiso   1.00
O225   O     0.48307   0.94484   0.64311   0.00000  Uiso   1.00
O226   O     0.54119   0.05545   0.62929   0.00000  Uiso   1.00
H227   H     0.58423   0.01102   0.68267   0.00000  Uiso   1.00
H228   H     0.07427   0.47542   0.09233   0.00000  Uiso   1.00
C229   C     0.39137   0.51270   0.01973   0.00000  Uiso   1.00
C230   C     0.38632   0.53381   0.98376   0.00000  Uiso   1.00
C231   C     0.35797   0.53483  -0.02294   0.00000  Uiso   1.00
C232   C     0.33484   0.51503   0.00795   0.00000  Uiso   1.00
C233   C     0.34037   0.49455   0.04528   0.00000  Uiso   1.00
C234   C     0.36851   0.49331   0.05022   0.00000  Uiso   1.00
C235   C     0.35228   0.55638   0.93655   0.00000  Uiso   1.00
C236   C     0.31644   0.47401   0.07990   0.00000  Uiso   1.00
C237   C     0.28607   0.49091   0.97273   0.00000  Uiso   1.00
C238   C     0.25667   0.48870   0.96951   0.00000  Uiso   1.00
C239   C     0.24766   0.51217  -0.00527   0.00000  Uiso   1.00
C240   C     0.26817   0.53763   0.02214   0.00000  Uiso   1.00
C241   C     0.29724   0.53846   0.02525   0.00000  Uiso   1.00
C242   C     0.23600   0.46327   0.94265   0.00000  Uiso   1.00
C243   C     0.20658   0.46061   0.94222   0.00000  Uiso   1.00
C244   C     0.19722   0.48353   0.96808   0.00000  Uiso   1.00
C245   C     0.21794   0.50979  -0.00652   0.00000  Uiso   1.00
C246   C     0.20893   0.53328   0.01861   0.00000  Uiso   1.00
C247   C     0.22976   0.55916   0.04445   0.00000  Uiso   1.00
C248   C     0.25902   0.56117   0.04653   0.00000  Uiso   1.00
C249   C     0.16753   0.48046   0.97030   0.00000  Uiso   1.00
C250   C     0.17911   0.52978   0.01839   0.00000  Uiso   1.00
C251   C     0.12827   0.49826   0.00123   0.00000  Uiso   1.00
C252   C     0.12605   0.51666   0.90862   0.00000  Uiso   1.00
C253   C     0.08184   0.49871   0.96636   0.00000  Uiso   1.00
C254   C     0.13071   0.47874   0.09299   0.00000  Uiso   1.00
C255   C     0.08476   0.48317   0.05525   0.00000  Uiso   1.00
C256   C     0.11430   0.48695   0.04889   0.00000  Uiso   1.00
C257   C     0.11178   0.50393   0.95953   0.00000  Uiso   1.00
C258   C     0.06868   0.48998   0.01480   0.00000  Uiso   1.00
H259   H     0.14820   0.50074   0.10699   0.00000  Uiso   1.00
N260   N     0.30554   0.51517   0.00109   0.00000  Uiso   1.00
N261   N     0.15902   0.50334  -0.00461   0.00000  Uiso   1.00
H262   H     0.14058   0.46074   0.07975   0.00000  Uiso   1.00
H263   H     0.40425   0.54890   0.96050   0.00000  Uiso   1.00
H264   H     0.37281   0.47733   0.07840   0.00000  Uiso   1.00
H265   H     0.37254   0.57026   0.91553   0.00000  Uiso   1.00
H266   H     0.33625   0.54148   0.90786   0.00000  Uiso   1.00
H267   H     0.34328   0.57381   0.95503   0.00000  Uiso   1.00
H268   H     0.29972   0.45564   0.05640   0.00000  Uiso   1.00
H269   H     0.32501   0.46122   0.10933   0.00000  Uiso   1.00
H270   H     0.30609   0.48940   0.10083   0.00000  Uiso   1.00
O271   O     0.31720   0.56222   0.05389   0.00000  Uiso   1.00
O272   O     0.29514   0.46807   0.94864   0.00000  Uiso   1.00
H273   H     0.24239   0.44507   0.92252   0.00000  Uiso   1.00
H274   H     0.27441   0.58115   0.06748   0.00000  Uiso   1.00
H275   H     0.19119   0.44043   0.92182   0.00000  Uiso   1.00
H276   H     0.10980   0.51801   0.87939   0.00000  Uiso   1.00
H277   H     0.14218   0.54123   0.91446   0.00000  Uiso   1.00
H278   H     0.06888   0.50204   0.93428   0.00000  Uiso   1.00
H279   H     0.22344   0.57760   0.06398   0.00000  Uiso   1.00
H280   H     0.11612   0.46827   0.12625   0.00000  Uiso   1.00
O281   O     0.16994   0.55223   0.04340   0.00000  Uiso   1.00
O282   O     0.14687   0.45374   0.94901   0.00000  Uiso   1.00
H283   H     0.13735   0.50071   0.89256   0.00000  Uiso   1.00
H284   H     0.61103   0.11782   0.89598   0.00000  Uiso   1.00
C285   C     0.89898   0.39309   0.01669   0.00000  Uiso   1.00
C286   C     0.87720   0.38579   0.05463   0.00000  Uiso   1.00
C287   C     0.85063   0.36070   0.04721   0.00000  Uiso   1.00
C288   C     0.84520   0.34340  -0.00020   0.00000  Uiso   1.00
C289   C     0.86647   0.35197   0.96004   0.00000  Uiso   1.00
C290   C     0.89348   0.37639   0.96927   0.00000  Uiso   1.00
C291   C     0.82884   0.35167   0.09090   0.00000  Uiso   1.00
C292   C     0.86043   0.33514   0.90813   0.00000  Uiso   1.00
C293   C     0.79283   0.32088  -0.01440   0.00000  Uiso   1.00
C294   C     0.76647   0.29465  -0.01452   0.00000  Uiso   1.00
C295   C     0.76735   0.26319  -0.00945   0.00000  Uiso   1.00
C296   C     0.79435   0.25843  -0.00386   0.00000  Uiso   1.00
C297   C     0.81999   0.28550  -0.00137   0.00000  Uiso   1.00
C298   C     0.73935   0.29914  -0.01871   0.00000  Uiso   1.00
C299   C     0.71342   0.27277  -0.01710   0.00000  Uiso   1.00
C300   C     0.71407   0.24130  -0.01249   0.00000  Uiso   1.00
C301   C     0.74114   0.23643  -0.00946   0.00000  Uiso   1.00
C302   C     0.74205   0.20489  -0.00625   0.00000  Uiso   1.00
C303   C     0.76914   0.20038  -0.00172   0.00000  Uiso   1.00
C304   C     0.79501   0.22689   0.00002   0.00000  Uiso   1.00
C305   C     0.68831   0.21442  -0.01128   0.00000  Uiso   1.00
C306   C     0.71573   0.17867  -0.00808   0.00000  Uiso   1.00
C307   C     0.66287   0.15673   0.98535   0.00000  Uiso   1.00
C308   C     0.66496   0.14408   0.08188   0.00000  Uiso   1.00
C309   C     0.62563   0.11018   0.02309   0.00000  Uiso   1.00
C310   C     0.66127   0.16830   0.88899   0.00000  Uiso   1.00
C311   C     0.62228   0.12336   0.93293   0.00000  Uiso   1.00
C312   C     0.64844   0.14937   0.93694   0.00000  Uiso   1.00
C313   C     0.65114   0.13710   0.02890   0.00000  Uiso   1.00
C314   C     0.61105   0.10355   0.97545   0.00000  Uiso   1.00
H315   H     0.68372   0.16796   0.88252   0.00000  Uiso   1.00
N316   N     0.81881   0.31598  -0.00651   0.00000  Uiso   1.00
N317   N     0.68957   0.18386  -0.01048   0.00000  Uiso   1.00
H318   H     0.66200   0.19362   0.89313   0.00000  Uiso   1.00
H319   H     0.88148   0.39887   0.09113   0.00000  Uiso   1.00
H320   H     0.91017   0.38257   0.93951   0.00000  Uiso   1.00
H321   H     0.83734   0.36629   0.12637   0.00000  Uiso   1.00
H322   H     0.80848   0.35578   0.07938   0.00000  Uiso   1.00
H323   H     0.82376   0.32586   0.10080   0.00000  Uiso   1.00
H324   H     0.84019   0.33730   0.89136   0.00000  Uiso   1.00
H325   H     0.87855   0.34580   0.88035   0.00000  Uiso   1.00
H326   H     0.85754   0.30921   0.91251   0.00000  Uiso   1.00
O327   O     0.84632   0.28141   0.00730   0.00000  Uiso   1.00
O328   O     0.79251   0.35165  -0.02103   0.00000  Uiso   1.00
H329   H     0.73804   0.32305  -0.02249   0.00000  Uiso   1.00
H330   H     0.81549   0.22257   0.00427   0.00000  Uiso   1.00
H331   H     0.69288   0.27709  -0.01995   0.00000  Uiso   1.00
H332   H     0.67178   0.12363   0.09421   0.00000  Uiso   1.00
H333   H     0.68432   0.16638   0.08312   0.00000  Uiso   1.00
H334   H     0.61675   0.09482   0.05604   0.00000  Uiso   1.00
H335   H     0.77043   0.17639   0.00097   0.00000  Uiso   1.00
H336   H     0.64811   0.15792   0.85392   0.00000  Uiso   1.00
O337   O     0.71623   0.14771  -0.00770   0.00000  Uiso   1.00
O338   O     0.66169   0.21877   0.98824   0.00000  Uiso   1.00
H339   H     0.64889   0.14707   0.11027   0.00000  Uiso   1.00
H340   H     0.63033   0.52627   0.03764   0.00000  Uiso   1.00
C341   C     0.93736   0.50253   0.98718   0.00000  Uiso   1.00
C342   C     0.91599   0.47600   0.96431   0.00000  Uiso   1.00
C343   C     0.88629   0.47221   0.96831   0.00000  Uiso   1.00
C344   C     0.87789   0.49558   0.99541   0.00000  Uiso   1.00
C345   C     0.89933   0.52197   0.01958   0.00000  Uiso   1.00
C346   C     0.92896   0.52543   0.01468   0.00000  Uiso   1.00
C347   C     0.86379   0.44378   0.94255   0.00000  Uiso   1.00
C348   C     0.89068   0.54663   0.04983   0.00000  Uiso   1.00
C349   C     0.82862   0.47543   1.03028   0.00000  Uiso   1.00
C350   C     0.79917   0.47339   1.02951   0.00000  Uiso   1.00
C351   C     0.78991   0.49093   0.99198   0.00000  Uiso   1.00
C352   C     0.81003   0.51001   0.95587   0.00000  Uiso   1.00
C353   C     0.83913   0.51101   0.95777   0.00000  Uiso   1.00
C354   C     0.77882   0.45428   0.06513   0.00000  Uiso   1.00
C355   C     0.74966   0.45260   0.06354   0.00000  Uiso   1.00
C356   C     0.74023   0.47008   1.02638   0.00000  Uiso   1.00
C357   C     0.76044   0.48936   0.99052   0.00000  Uiso   1.00
C358   C     0.75127   0.50709   0.95319   0.00000  Uiso   1.00
C359   C     0.77156   0.52614   0.91749   0.00000  Uiso   1.00
C360   C     0.80062   0.52754   0.91876   0.00000  Uiso   1.00
C361   C     0.71107   0.46890   1.02418   0.00000  Uiso   1.00
C362   C     0.72195   0.50534   0.95272   0.00000  Uiso   1.00
C363   C     0.67285   0.48576   0.98737   0.00000  Uiso   1.00
C364   C     0.65950   0.44034   0.91967   0.00000  Uiso   1.00
C365   C     0.62370   0.46524   0.95182   0.00000  Uiso   1.00
C366   C     0.68667   0.53163   0.05306   0.00000  Uiso   1.00
C367   C     0.63632   0.50875   0.01485   0.00000  Uiso   1.00
C368   C     0.66475   0.50791   0.01826   0.00000  Uiso   1.00
C369   C     0.65204   0.46406   0.95433   0.00000  Uiso   1.00
C370   C     0.61590   0.48800   0.98093   0.00000  Uiso   1.00
H371   H     0.70489   0.54762   0.02949   0.00000  Uiso   1.00
N372   N     0.84786   0.49397   0.99467   0.00000  Uiso   1.00
N373   N     0.70260   0.48652   0.98795   0.00000  Uiso   1.00
H374   H     0.69550   0.51856   0.08150   0.00000  Uiso   1.00
H375   H     0.92262   0.45868   0.94213   0.00000  Uiso   1.00
H376   H     0.94556   0.54601   0.03204   0.00000  Uiso   1.00
H377   H     0.87401   0.42835   0.92139   0.00000  Uiso   1.00
H378   H     0.84888   0.42869   0.97222   0.00000  Uiso   1.00
H379   H     0.85087   0.45227   0.91430   0.00000  Uiso   1.00
H380   H     0.87575   0.53457   0.08183   0.00000  Uiso   1.00
H381   H     0.90996   0.56549   0.06701   0.00000  Uiso   1.00
H382   H     0.87934   0.55865   0.02406   0.00000  Uiso   1.00
O383   O     0.85894   0.52920   0.92241   0.00000  Uiso   1.00
O384   O     0.83814   0.45874   0.06678   0.00000  Uiso   1.00
H385   H     0.78533   0.44053   0.09431   0.00000  Uiso   1.00
H386   H     0.81567   0.54243   0.89060   0.00000  Uiso   1.00
H387   H     0.73456   0.43761   0.09156   0.00000  Uiso   1.00
H388   H     0.65590   0.44533   0.87856   0.00000  Uiso   1.00
H389   H     0.68248   0.44148   0.92362   0.00000  Uiso   1.00
H390   H     0.60803   0.44913   0.92546   0.00000  Uiso   1.00
H391   H     0.76506   0.53998   0.88842   0.00000  Uiso   1.00
H392   H     0.67676   0.54708   0.07497   0.00000  Uiso   1.00
O393   O     0.71266   0.52270   0.91695   0.00000  Uiso   1.00
O394   O     0.69102   0.45019   0.05870   0.00000  Uiso   1.00
H395   H     0.64518   0.41546   0.92908   0.00000  Uiso   1.00
H396   H     0.13213   0.58161   0.97773   0.00000  Uiso   1.00
C397   C     0.39434   0.89758   0.01394   0.00000  Uiso   1.00
C398   C     0.36769   0.90281   0.00835   0.00000  Uiso   1.00
C399   C     0.34140   0.87676   0.00524   0.00000  Uiso   1.00
C400   C     0.34192   0.84493   0.00609   0.00000  Uiso   1.00
C401   C     0.36888   0.83955   0.00849   0.00000  Uiso   1.00
C402   C     0.39488   0.86598   0.01295   0.00000  Uiso   1.00
C403   C     0.31288   0.88308   0.00321   0.00000  Uiso   1.00
C404   C     0.37001   0.80580   1.00697   0.00000  Uiso   1.00
C405   C     0.29995   0.80723   0.96232   0.00000  Uiso   1.00
C406   C     0.27327   0.78154   0.96316   0.00000  Uiso   1.00
C407   C     0.26263   0.76662   0.01079   0.00000  Uiso   1.00
C408   C     0.27844   0.77796   0.05679   0.00000  Uiso   1.00
C409   C     0.30461   0.80430   0.05424   0.00000  Uiso   1.00
C410   C     0.25706   0.77048   0.91768   0.00000  Uiso   1.00
C411   C     0.23064   0.74482   0.91936   0.00000  Uiso   1.00
C412   C     0.22002   0.72947   0.96653   0.00000  Uiso   1.00
C413   C     0.23613   0.74030   0.01239   0.00000  Uiso   1.00
C414   C     0.22585   0.72479   0.05977   0.00000  Uiso   1.00
C415   C     0.24187   0.73627   0.10543   0.00000  Uiso   1.00
C416   C     0.26776   0.76275   0.10402   0.00000  Uiso   1.00
C417   C     0.19367   0.70343   0.96903   0.00000  Uiso   1.00
C418   C     0.19976   0.69813   0.06007   0.00000  Uiso   1.00
C419   C     0.15762   0.66067   1.01558   0.00000  Uiso   1.00
C420   C     0.12861   0.69656   0.04438   0.00000  Uiso   1.00
C421   C     0.10450   0.63871   1.01941   0.00000  Uiso   1.00
C422   C     0.18658   0.62500   0.98818   0.00000  Uiso   1.00
C423   C     0.13172   0.60471   0.99156   0.00000  Uiso   1.00
C424   C     0.15809   0.63019   0.99919   0.00000  Uiso   1.00
C425   C     0.13060   0.66468   1.02689   0.00000  Uiso   1.00
C426   C     0.10484   0.60905   1.00002   0.00000  Uiso   1.00
H427   H     0.19970   0.62853   0.02430   0.00000  Uiso   1.00
N428   N     0.31495   0.81808   0.00744   0.00000  Uiso   1.00
N429   N     0.18424   0.68810   1.01513   0.00000  Uiso   1.00
H430   H     0.19920   0.64224   0.95850   0.00000  Uiso   1.00
H431   H     0.36723   0.92721   0.00922   0.00000  Uiso   1.00
H432   H     0.41553   0.86191   1.01640   0.00000  Uiso   1.00
H433   H     0.31619   0.90924   0.00576   0.00000  Uiso   1.00
H434   H     0.30140   0.87380  -0.03375   0.00000  Uiso   1.00
H435   H     0.29870   0.87098   0.03601   0.00000  Uiso   1.00
H436   H     0.36077   0.79385   0.96978   0.00000  Uiso   1.00
H437   H     0.39271   0.80580   1.01022   0.00000  Uiso   1.00
H438   H     0.35734   0.79143   0.03961   0.00000  Uiso   1.00
O439   O     0.31991   0.81629   0.09886   0.00000  Uiso   1.00
O440   O     0.31099   0.82158   0.91611   0.00000  Uiso   1.00
H441   H     0.26467   0.78171   0.88070   0.00000  Uiso   1.00
H442   H     0.27945   0.77114   0.13998   0.00000  Uiso   1.00
H443   H     0.21867   0.73695   0.88354   0.00000  Uiso   1.00
H444   H     0.11632   0.69338   0.08140   0.00000  Uiso   1.00
H445   H     0.15024   0.71532   1.05080   0.00000  Uiso   1.00
H446   H     0.08383   0.64217   1.02658   0.00000  Uiso   1.00
H447   H     0.23439   0.72495   0.14240   0.00000  Uiso   1.00
H448   H     0.18311   0.60030   0.97319   0.00000  Uiso   1.00
O449   O     0.18978   0.68210   0.10551   0.00000  Uiso   1.00
O450   O     0.17743   0.69298   0.92480   0.00000  Uiso   1.00
H451   H     0.11686   0.70558   1.01468   0.00000  Uiso   1.00
H452   H     0.49073   0.57050   0.05935   0.00000  Uiso   1.00
C453   C     0.50104   0.92470   0.97994   0.00000  Uiso   1.00
C454   C     0.50294   0.90685   0.93578   0.00000  Uiso   1.00
C455   C     0.49940   0.87408   0.93931   0.00000  Uiso   1.00
C456   C     0.49378   0.85883   0.98801   0.00000  Uiso   1.00
C457   C     0.49161   0.87671   0.03263   0.00000  Uiso   1.00
C458   C     0.49584   0.90977   0.02834   0.00000  Uiso   1.00
C459   C     0.50220   0.85567   0.89136   0.00000  Uiso   1.00
C460   C     0.48486   0.86062   0.08456   0.00000  Uiso   1.00
C461   C     0.51720   0.81960   1.00590   0.00000  Uiso   1.00
C462   C     0.51721   0.78778   1.00720   0.00000  Uiso   1.00
C463   C     0.49142   0.76230   0.99440   0.00000  Uiso   1.00
C464   C     0.46598   0.76896   0.98130   0.00000  Uiso   1.00
C465   C     0.46702   0.80126   0.98066   0.00000  Uiso   1.00
C466   C     0.54248   0.78094   1.02014   0.00000  Uiso   1.00
C467   C     0.54230   0.74923   1.01969   0.00000  Uiso   1.00
C468   C     0.51685   0.72367   1.00626   0.00000  Uiso   1.00
C469   C     0.49124   0.73015   0.99390   0.00000  Uiso   1.00
C470   C     0.46562   0.70464   0.98030   0.00000  Uiso   1.00
C471   C     0.44025   0.71148   0.96788   0.00000  Uiso   1.00
C472   C     0.44042   0.74329   0.96839   0.00000  Uiso   1.00
C473   C     0.51649   0.69174   1.00409   0.00000  Uiso   1.00
C474   C     0.46629   0.67296   0.97880   0.00000  Uiso   1.00
C475   C     0.49265   0.63513   0.98514   0.00000  Uiso   1.00
C476   C     0.50786   0.64578   0.88995   0.00000  Uiso   1.00
C477   C     0.50463   0.59472   0.93453   0.00000  Uiso   1.00
C478   C     0.47855   0.62522   0.07982   0.00000  Uiso   1.00
C479   C     0.49236   0.58506   0.02518   0.00000  Uiso   1.00
C480   C     0.48785   0.61486   0.02896   0.00000  Uiso   1.00
C481   C     0.50121   0.62490   0.93761   0.00000  Uiso   1.00
C482   C     0.50019   0.57466   0.97789   0.00000  Uiso   1.00
H483   H     0.45763   0.62972   0.07455   0.00000  Uiso   1.00
N484   N     0.49242   0.82577   0.99246   0.00000  Uiso   1.00
N485   N     0.49155   0.66724   0.99018   0.00000  Uiso   1.00
H486   H     0.49549   0.64767   0.09387   0.00000  Uiso   1.00
H487   H     0.50735   0.91873   0.89845   0.00000  Uiso   1.00
H488   H     0.49538   0.92391   0.06264   0.00000  Uiso   1.00
H489   H     0.50735   0.87132   0.85658   0.00000  Uiso   1.00
H490   H     0.52000   0.84555   0.89673   0.00000  Uiso   1.00
H491   H     0.48135   0.83569   0.88403   0.00000  Uiso   1.00
H492   H     0.50236   0.85110   0.09571   0.00000  Uiso   1.00
H493   H     0.48311   0.87764   0.11530   0.00000  Uiso   1.00
H494   H     0.46375   0.84038   0.08233   0.00000  Uiso   1.00
O495   O     0.44268   0.80834   0.96695   0.00000  Uiso   1.00
O496   O     0.54240   0.84473   1.01694   0.00000  Uiso   1.00
H497   H     0.56254   0.80007   0.03032   0.00000  Uiso   1.00
H498   H     0.42055   0.74771   0.95821   0.00000  Uiso   1.00
H499   H     0.56224   0.74485   0.02944   0.00000  Uiso   1.00
H500   H     0.49464   0.63229   0.85679   0.00000  Uiso   1.00
H501   H     0.50304   0.66844   0.89508   0.00000  Uiso   1.00
H502   H     0.51131   0.58700   0.89803   0.00000  Uiso   1.00
H503   H     0.42026   0.69230   0.95734   0.00000  Uiso   1.00
H504   H     0.47521   0.60644   0.10999   0.00000  Uiso   1.00
O505   O     0.44176   0.64779   0.96470   0.00000  Uiso   1.00
O506   O     0.54147   0.68511   0.01490   0.00000  Uiso   1.00
H507   H     0.53136   0.65221   0.88001   0.00000  Uiso   1.00
H508   H     0.55031   0.09116   1.03641   0.00000  Uiso   1.00
C509   C     0.50629   0.42709   0.02445   0.00000  Uiso   1.00
C510   C     0.48213   0.39830   0.02485   0.00000  Uiso   1.00
C511   C     0.48586   0.36813   0.02661   0.00000  Uiso   1.00
C512   C     0.51423   0.36639   0.02471   0.00000  Uiso   1.00
C513   C     0.53862   0.39515   1.02395   0.00000  Uiso   1.00
C514   C     0.53438   0.42515   1.02628   0.00000  Uiso   1.00
C515   C     0.45969   0.33794   0.03303   0.00000  Uiso   1.00
C516   C     0.56904   0.39391   1.02093   0.00000  Uiso   1.00
C517   C     0.51338   0.31795   0.97847   0.00000  Uiso   1.00
C518   C     0.51360   0.28616   0.97760   0.00000  Uiso   1.00
C519   C     0.51932   0.27257   0.02385   0.00000  Uiso   1.00
C520   C     0.52520   0.29104   0.06990   0.00000  Uiso   1.00
C521   C     0.52426   0.32261   0.06909   0.00000  Uiso   1.00
C522   C     0.50757   0.26746   0.93194   0.00000  Uiso   1.00
C523   C     0.50675   0.23550   0.93234   0.00000  Uiso   1.00
C524   C     0.51207   0.22157   0.97837   0.00000  Uiso   1.00
C525   C     0.51857   0.24022   0.02423   0.00000  Uiso   1.00
C526   C     0.52369   0.22636   0.07068   0.00000  Uiso   1.00
C527   C     0.53039   0.24526   0.11608   0.00000  Uiso   1.00
C528   C     0.53118   0.27727   0.11571   0.00000  Uiso   1.00
C529   C     0.51061   0.18923   0.97996   0.00000  Uiso   1.00
C530   C     0.52145   0.19370   0.07061   0.00000  Uiso   1.00
C531   C     0.51122   0.14204   0.02669   0.00000  Uiso   1.00
C532   C     0.45563   0.12773   0.02657   0.00000  Uiso   1.00
C533   C     0.47965   0.08593   0.02138   0.00000  Uiso   1.00
C534   C     0.56638   0.15620   1.02882   0.00000  Uiso   1.00
C535   C     0.53182   0.09888   0.02958   0.00000  Uiso   1.00
C536   C     0.53586   0.13197   0.02845   0.00000  Uiso   1.00
C537   C     0.48287   0.11870   0.02442   0.00000  Uiso   1.00
C538   C     0.50395   0.07571   0.02432   0.00000  Uiso   1.00
H539   H     0.57032   0.17118   0.06460   0.00000  Uiso   1.00
N540   N     0.51802   0.33526   0.02394   0.00000  Uiso   1.00
N541   N     0.51495   0.17589   0.02568   0.00000  Uiso   1.00
H542   H     0.56954   0.17207   0.99451   0.00000  Uiso   1.00
H543   H     0.46022   0.39935   0.02583   0.00000  Uiso   1.00
H544   H     0.55290   0.44688   1.03198   0.00000  Uiso   1.00
H545   H     0.43913   0.34336   0.03719   0.00000  Uiso   1.00
H546   H     0.45742   0.32165  -0.00089   0.00000  Uiso   1.00
H547   H     0.46246   0.32516   0.06854   0.00000  Uiso   1.00
H548   H     0.57115   0.38054   0.98534   0.00000  Uiso   1.00
H549   H     0.58567   0.41843   1.01922   0.00000  Uiso   1.00
H550   H     0.57364   0.38154   1.05545   0.00000  Uiso   1.00
O551   O     0.52861   0.34040   0.11414   0.00000  Uiso   1.00
O552   O     0.50752   0.33137   0.93377   0.00000  Uiso   1.00
H553   H     0.50308   0.27731   0.89588   0.00000  Uiso   1.00
H554   H     0.53621   0.29102   0.15154   0.00000  Uiso   1.00
H555   H     0.50163   0.22164   0.89661   0.00000  Uiso   1.00
H556   H     0.44029   0.11281   0.05602   0.00000  Uiso   1.00
H557   H     0.46025   0.15336   0.03763   0.00000  Uiso   1.00
H558   H     0.45786   0.06820   0.01888   0.00000  Uiso   1.00
H559   H     0.53479   0.23526   0.15212   0.00000  Uiso   1.00
H560   H     0.58308   0.14428   1.02707   0.00000  Uiso   1.00
O561   O     0.52494   0.17934   0.11603   0.00000  Uiso   1.00
O562   O     0.50409   0.17062   0.93571   0.00000  Uiso   1.00
H563   H     0.44468   0.12324  -0.01185   0.00000  Uiso   1.00
loop_
_geom_bond_atom_site_label_1
_geom_bond_atom_site_label_2
_geom_bond_distance
_geom_bond_site_symmetry_2
_ccdc_geom_bond_type
Yb0    O3      2.105   .     S
Yb0    O4      2.083   .     S
Yb0    O7      2.094   .     S
Yb0    O5      2.154   1_556 S
Yb0    O8      2.089   1_556 S
Yb0    O12     2.183   1_556 S
Yb1    O9      2.102   .     S
Yb1    O10     2.082   .     S
Yb1    O14     2.106   .     S
Yb1    O6      2.152   1_554 S
Yb1    O13     2.157   1_554 S
Yb1    O16     2.091   1_554 S
C2     O14     1.289   .     A
C2     C229    1.460   .     S
C2     O16     1.289   1_554 A
O3     C11     1.295   .     A
O4     C11     1.289   .     A
O5     C15     1.269   .     A
O5     Yb0     2.154   1_554 S
O6     Yb1     2.152   1_556 S
O6     C15     1.272   1_556 A
O7     C17     1.294   .     A
O8     Yb0     2.089   1_554 S
O8     C17     1.291   1_554 A
O9     C18     1.294   .     A
O10    C18     1.291   .     A
C11    C90     1.475   .     S
O12    C19     1.278   .     A
O12    Yb0     2.183   1_554 S
O13    Yb1     2.157   1_556 S
O13    C19     1.273   1_556 A
C15    O6      1.272   1_554 A
C15    C482    1.470   1_554 S
O16    Yb1     2.091   1_556 S
O16    C2      1.289   1_556 A
C17    C370    1.473   .     S
C17    O8      1.291   1_556 A
C18    C61     1.474   .     S
C19    C509    1.483   .     S
C19    O13     1.273   1_554 A
Yb20   O23     2.105   .     S
Yb20   O27     2.099   .     S
Yb20   O24     2.108   1_455 S
Yb20   O25     2.177   1_455 S
Yb20   O28     2.114   1_556 S
Yb20   O32     2.167   1_556 S
Yb21   O29     2.108   .     S
Yb21   O34     2.091   .     S
Yb21   O26     2.162   1_554 S
Yb21   O30     2.100   1_655 S
Yb21   O33     2.167   1_655 S
Yb21   O36     2.108   1_554 S
C22    O34     1.290   .     A
C22    C285    1.472   .     S
C22    O36     1.293   1_554 A
O23    C31     1.292   .     A
O24    Yb20    2.108   1_655 S
O24    C31     1.292   1_655 A
O25    C35     1.275   .     A
O25    Yb20    2.177   1_655 S
O26    C35     1.269   .     A
O26    Yb21    2.162   1_556 S
O27    C37     1.288   .     A
O28    Yb20    2.114   1_554 S
O28    C37     1.291   1_554 A
O29    C38     1.293   1_655 A
O30    C38     1.291   .     A
O30    Yb21    2.100   1_455 S
C31    O24     1.292   1_455 A
C31    C117    1.482   1_455 S
O32    C39     1.276   .     A
O32    Yb20    2.167   1_554 S
O33    C39     1.274   .     A
O33    Yb21    2.167   1_455 S
C35    C341    1.471   .     S
O36    Yb21    2.108   1_556 S
O36    C22     1.293   1_556 A
C37    C426    1.478   .     S
C37    O28     1.291   1_556 A
C38    C146    1.483   .     S
C38    O29     1.293   1_455 A
C39    C258    1.474   .     S
Yb40   O43     2.103   .     S
Yb40   O47     2.100   .     S
Yb40   O44     2.091   1_565 S
Yb40   O45     2.156   1_565 S
Yb40   O48     2.102   1_554 S
Yb40   O52     2.151   1_554 S
Yb41   O49     2.109   .     S
Yb41   O54     2.088   .     S
Yb41   O46     2.182   1_556 S
Yb41   O50     2.087   1_545 S
Yb41   O53     2.154   1_545 S
Yb41   O56     2.102   1_556 S
C42    O54     1.291   .     A
C42    C314    1.464   .     S
C42    O56     1.292   1_556 A
O43    C51     1.293   1_565 A
O44    C51     1.291   .     A
O44    Yb40    2.091   1_545 S
O45    C55     1.274   .     A
O45    Yb40    2.156   1_545 S
O46    C55     1.277   .     A
O46    Yb41    2.182   1_554 S
O47    C57     1.289   .     A
O48    Yb40    2.102   1_556 S
O48    C57     1.291   1_556 A
O49    C58     1.294   1_545 A
O50    C58     1.289   .     A
O50    Yb41    2.087   1_565 S
C51    C173    1.474   .     S
C51    O43     1.293   1_545 A
O52    C59     1.271   .     A
O52    Yb40    2.151   1_556 S
O53    C59     1.269   .     A
O53    Yb41    2.154   1_565 S
C55    C538    1.478   .     S
O56    Yb41    2.102   1_554 S
O56    C42     1.292   1_554 A
C57    C397    1.473   .     S
C57    O48     1.291   1_554 A
C58    C202    1.475   .     S
C58    O49     1.294   1_565 A
C59    C453    1.466   .     S
H60    C87     1.083   .     S
C61    C62     1.403   .     A
C61    C66     1.402   .     A
C62    C63     1.404   .     A
C62    H95     1.084   .     S
C63    C64     1.411   .     A
C63    C67     1.505   .     S
C64    C65     1.409   .     A
C64    N92     1.439   .     S
C65    C66     1.399   .     A
C65    C68     1.506   .     S
C66    H96     1.084   .     S
C67    H97     1.110   .     S
C67    H98     1.109   .     S
C67    H99     1.110   .     S
C68    H100    1.110   .     S
C68    H101    1.111   .     S
C68    H102    1.110   .     S
C69    C70     1.403   .     A
C69    N92     1.368   .     A
C69    O104    1.373   .     S
C70    C71     1.408   .     A
C70    C74     1.404   .     A
C71    C72     1.409   .     A
C71    C77     1.413   .     A
C72    C73     1.406   .     A
C72    C80     1.405   .     A
C73    N92     1.369   .     A
C73    O103    1.373   .     S
C74    C75     1.396   .     A
C74    H105    1.083   .     S
C75    C76     1.405   .     A
C75    H107    1.083   .     S
C76    C77     1.410   .     A
C76    C81     1.404   .     A
C77    C78     1.408   .     A
C78    C79     1.405   .     A
C78    C82     1.403   .     A
C79    C80     1.397   .     A
C79    H111    1.083   .     S
C80    H106    1.083   .     S
C81    N93     1.370   .     A
C81    O114    1.374   .     S
C82    N93     1.371   .     A
C82    O113    1.374   .     S
C83    C88     1.412   .     A
C83    C89     1.412   .     A
C83    N93     1.437   .     S
C84    C89     1.507   .     S
C84    H108    1.110   .     S
C84    H109    1.108   .     S
C84    H115    1.111   .     S
C85    C89     1.398   .     A
C85    C90     1.403   .     A
C85    H110    1.084   .     S
C86    C88     1.504   .     S
C86    H91     1.109   .     S
C86    H94     1.110   .     S
C86    H112    1.110   .     S
C87    C88     1.404   .     A
C87    C90     1.402   .     A
H116   C143    1.082   .     S
C117   C118    1.403   .     A
C117   C122    1.404   1_655 A
C117   C31     1.482   1_655 S
C118   C119    1.404   .     A
C118   H151    1.084   .     S
C119   C123    1.505   .     S
C119   C120    1.412   1_655 A
C120   C121    1.413   .     A
C120   N148    1.444   .     S
C120   C119    1.412   1_455 A
C121   C122    1.406   .     A
C121   C124    1.505   .     S
C122   H152    1.084   .     S
C122   C117    1.404   1_455 A
C123   H153    1.111   .     S
C123   H154    1.110   .     S
C123   H155    1.110   .     S
C124   H156    1.110   .     S
C124   H157    1.110   .     S
C124   H158    1.110   .     S
C125   C126    1.407   .     A
C125   O160    1.373   .     S
C125   N148    1.371   1_655 A
C126   C130    1.406   .     A
C126   C127    1.409   1_655 A
C127   C128    1.409   .     A
C127   C133    1.415   .     A
C127   C126    1.409   1_455 A
C128   C129    1.407   .     A
C128   C136    1.406   .     A
C129   N148    1.371   .     A
C129   O159    1.373   .     S
C130   C131    1.398   .     A
C130   H161    1.083   .     S
C131   C132    1.406   .     A
C131   H163    1.084   .     S
C132   C137    1.406   .     A
C132   C133    1.409   1_655 A
C133   C134    1.409   .     A
C133   C132    1.409   1_455 A
C134   C135    1.406   .     A
C134   C138    1.408   .     A
C135   C136    1.398   .     A
C135   H167    1.083   .     S
C136   H162    1.083   .     S
C137   O170    1.373   .     S
C137   N149    1.370   1_655 A
C138   N149    1.371   .     A
C138   O169    1.373   .     S
C139   C144    1.413   .     A
C139   N149    1.443   .     S
C139   C145    1.414   1_455 A
C140   C145    1.506   .     S
C140   H164    1.111   .     S
C140   H165    1.108   .     S
C140   H171    1.110   .     S
C141   C145    1.403   .     A
C141   H166    1.083   .     S
C141   C146    1.403   1_655 A
C142   C144    1.506   .     S
C142   H147    1.110   .     S
C142   H150    1.109   .     S
C142   H168    1.110   .     S
C143   C144    1.405   .     A
C143   C146    1.403   .     A
C145   C139    1.414   1_655 A
C146   C141    1.403   1_455 A
N148   C125    1.371   1_455 A
N149   C137    1.370   1_455 A
H172   C199    1.084   .     S
C173   C178    1.403   .     A
C173   C174    1.402   1_545 A
C174   C175    1.403   .     A
C174   H207    1.084   .     S
C174   C173    1.402   1_565 A
C175   C176    1.413   .     A
C175   C179    1.506   .     S
C176   N204    1.437   .     S
C176   C177    1.412   1_565 A
C177   C178    1.401   .     A
C177   C180    1.508   .     S
C177   C176    1.412   1_545 A
C178   H208    1.084   .     S
C179   H209    1.110   .     S
C179   H210    1.110   .     S
C179   H211    1.109   .     S
C180   H212    1.111   .     S
C180   H213    1.111   .     S
C180   H214    1.109   1_545 S
C181   C182    1.403   .     A
C181   O216    1.373   .     S
C181   N204    1.370   1_545 A
C182   C186    1.405   .     A
C182   C183    1.410   1_545 A
C183   C184    1.409   .     A
C183   C189    1.412   .     A
C183   C182    1.410   1_565 A
C184   C185    1.403   .     A
C184   C192    1.406   .     A
C185   N204    1.370   .     A
C185   O215    1.374   .     S
C186   C187    1.396   .     A
C186   H217    1.083   .     S
C187   C188    1.405   .     A
C187   H219    1.083   .     S
C188   C193    1.403   .     A
C188   C189    1.409   1_545 A
C189   C190    1.409   .     A
C189   C188    1.409   1_565 A
C190   C191    1.406   .     A
C190   C194    1.405   .     A
C191   C192    1.397   .     A
C191   H223    1.083   .     S
C192   H218    1.084   .     S
C193   O226    1.374   .     S
C193   N205    1.370   1_545 A
C194   N205    1.371   .     A
C194   O225    1.373   .     S
C195   C200    1.414   .     A
C195   C201    1.413   .     A
C195   N205    1.438   .     S
C196   C201    1.507   .     S
C196   H220    1.111   .     S
C196   H221    1.109   .     S
C196   H227    1.110   1_565 S
C197   C201    1.399   .     A
C197   C202    1.403   .     A
C197   H222    1.085   .     S
C198   C200    1.506   .     S
C198   H203    1.110   .     S
C198   H206    1.110   1_565 S
C198   H224    1.111   1_565 S
C199   C200    1.404   .     A
C199   C202    1.401   .     A
N204   C181    1.370   1_565 A
N205   C193    1.370   1_565 A
H206   C198    1.110   1_545 S
H214   C180    1.109   1_565 S
H224   C198    1.111   1_545 S
H227   C196    1.110   1_545 S
H228   C255    1.085   .     S
C229   C234    1.395   .     A
C229   C230    1.398   1_554 A
C230   H263    1.083   .     S
C230   C229    1.398   1_556 A
C230   C231    1.407   1_556 A
C231   C232    1.415   .     A
C231   C230    1.407   1_554 A
C231   C235    1.505   1_554 S
C232   C233    1.411   .     A
C232   N260    1.440   .     S
C233   C234    1.396   .     A
C233   C236    1.505   .     S
C234   H264    1.084   .     S
C235   H265    1.111   .     S
C235   H266    1.111   .     S
C235   H267    1.110   .     S
C235   C231    1.505   1_556 S
C236   H268    1.110   .     S
C236   H269    1.111   .     S
C236   H270    1.110   .     S
C237   C238    1.405   .     A
C237   O272    1.373   .     S
C237   N260    1.371   1_556 A
C238   C242    1.405   .     A
C238   C239    1.408   1_556 A
C239   C240    1.409   .     A
C239   C245    1.415   .     A
C239   C238    1.408   1_554 A
C240   C241    1.406   .     A
C240   C248    1.405   .     A
C241   N260    1.370   .     A
C241   O271    1.373   .     S
C242   C243    1.397   .     A
C242   H273    1.083   .     S
C243   C244    1.405   .     A
C243   H275    1.082   .     S
C244   C249    1.407   .     A
C244   C245    1.409   1_556 A
C245   C246    1.408   .     A
C245   C244    1.409   1_554 A
C246   C247    1.407   .     A
C246   C250    1.407   .     A
C247   C248    1.398   .     A
C247   H279    1.083   .     S
C248   H274    1.084   .     S
C249   O282    1.374   .     S
C249   N261    1.371   1_556 A
C250   N261    1.372   .     A
C250   O281    1.373   .     S
C251   C256    1.413   .     A
C251   N261    1.445   .     S
C251   C257    1.416   1_554 A
C252   C257    1.505   .     S
C252   H276    1.110   .     S
C252   H277    1.110   .     S
C252   H283    1.107   .     S
C253   C257    1.408   .     A
C253   H278    1.082   .     S
C253   C258    1.398   1_556 A
C254   C256    1.506   .     S
C254   H259    1.109   .     S
C254   H262    1.110   .     S
C254   H280    1.111   .     S
C255   C256    1.400   .     A
C255   C258    1.399   .     A
C257   C251    1.416   1_556 A
C258   C253    1.398   1_554 A
N260   C237    1.371   1_554 A
N261   C249    1.371   1_554 A
H284   C311    1.084   .     S
C285   C286    1.398   .     A
C285   C290    1.401   1_554 A
C286   C287    1.399   .     A
C286   H319    1.083   .     S
C287   C288    1.413   .     A
C287   C291    1.506   .     S
C288   N316    1.442   .     S
C288   C289    1.415   1_554 A
C289   C290    1.407   .     A
C289   C292    1.506   .     S
C289   C288    1.415   1_556 A
C290   H320    1.083   .     S
C290   C285    1.401   1_556 A
C291   H321    1.111   .     S
C291   H322    1.108   .     S
C291   H323    1.110   .     S
C292   H324    1.111   .     S
C292   H325    1.111   .     S
C292   H326    1.109   .     S
C293   C294    1.405   .     A
C293   N316    1.370   .     A
C293   O328    1.373   .     S
C294   C295    1.409   .     A
C294   C298    1.405   .     A
C295   C296    1.408   .     A
C295   C301    1.413   .     A
C296   C297    1.405   .     A
C296   C304    1.406   .     A
C297   N316    1.371   .     A
C297   O327    1.373   .     S
C298   C299    1.396   .     A
C298   H329    1.082   .     S
C299   C300    1.404   .     A
C299   H331    1.083   .     S
C300   C301    1.408   .     A
C300   C305    1.403   .     A
C301   C302    1.409   .     A
C302   C303    1.405   .     A
C302   C306    1.405   .     A
C303   C304    1.397   .     A
C303   H335    1.083   .     S
C304   H330    1.083   .     S
C305   N317    1.369   .     A
C305   O338    1.373   1_554 S
C306   N317    1.370   .     A
C306   O337    1.373   .     S
C307   C312    1.414   .     A
C307   C313    1.418   1_556 A
C307   N317    1.440   1_556 S
C308   C313    1.507   .     S
C308   H332    1.110   .     S
C308   H333    1.107   .     S
C308   H339    1.110   .     S
C309   C313    1.403   .     A
C309   H334    1.084   .     S
C309   C314    1.398   1_554 A
C310   C312    1.507   .     S
C310   H315    1.111   .     S
C310   H318    1.108   .     S
C310   H336    1.111   .     S
C311   C312    1.398   .     A
C311   C314    1.397   .     A
C313   C307    1.418   1_554 A
C314   C309    1.398   1_556 A
N317   C307    1.440   1_554 S
O338   C305    1.373   1_556 S
H340   C367    1.083   .     S
C341   C342    1.401   .     A
C341   C346    1.399   1_556 A
C342   C343    1.402   .     A
C342   H375    1.084   .     S
C343   C344    1.411   .     A
C343   C347    1.506   .     S
C344   N372    1.440   .     S
C344   C345    1.413   1_556 A
C345   C346    1.404   .     A
C345   C348    1.505   .     S
C345   C344    1.413   1_554 A
C346   H376    1.083   .     S
C346   C341    1.399   1_554 A
C347   H377    1.110   .     S
C347   H378    1.110   .     S
C347   H379    1.110   .     S
C348   H380    1.110   .     S
C348   H381    1.111   .     S
C348   H382    1.110   .     S
C349   C350    1.407   .     A
C349   N372    1.369   .     A
C349   O384    1.373   1_556 S
C350   C351    1.409   .     A
C350   C354    1.405   1_556 A
C351   C352    1.408   .     A
C351   C357    1.413   .     A
C352   C353    1.403   .     A
C352   C360    1.405   .     A
C353   N372    1.371   .     A
C353   O383    1.373   .     S
C354   C355    1.397   .     A
C354   H385    1.082   .     S
C354   C350    1.405   1_554 A
C355   H387    1.083   .     S
C355   C356    1.405   1_554 A
C356   C357    1.409   .     A
C356   C361    1.405   .     A
C356   C355    1.405   1_556 A
C357   C358    1.409   .     A
C358   C359    1.405   .     A
C358   C362    1.404   .     A
C359   C360    1.396   .     A
C359   H391    1.083   .     S
C360   H386    1.083   .     S
C361   N373    1.369   .     A
C361   O394    1.373   1_556 S
C362   N373    1.370   .     A
C362   O393    1.374   .     S
C363   C369    1.414   .     A
C363   N373    1.438   .     S
C363   C368    1.412   1_556 A
C364   C369    1.506   .     S
C364   H388    1.110   .     S
C364   H389    1.108   .     S
C364   H395    1.109   .     S
C365   C369    1.401   .     A
C365   C370    1.400   .     A
C365   H390    1.084   .     S
C366   C368    1.506   .     S
C366   H371    1.110   .     S
C366   H374    1.109   .     S
C366   H392    1.110   .     S
C367   C368    1.401   .     A
C367   C370    1.401   1_554 A
C368   C363    1.412   1_554 A
C370   C367    1.401   1_556 A
O384   C349    1.373   1_554 S
O394   C361    1.373   1_554 S
H396   C423    1.083   .     S
C397   C398    1.401   .     A
C397   C402    1.402   .     A
C398   C399    1.401   .     A
C398   H431    1.083   .     S
C399   C400    1.412   .     A
C399   C403    1.507   .     S
C400   C401    1.413   .     A
C400   N428    1.439   .     S
C401   C402    1.403   .     A
C401   C404    1.507   1_554 S
C402   H432    1.084   1_554 S
C403   H433    1.110   .     S
C403   H434    1.108   .     S
C403   H435    1.109   .     S
C404   H436    1.110   .     S
C404   H437    1.109   .     S
C404   C401    1.507   1_556 S
C404   H438    1.109   1_556 S
C405   C406    1.404   .     A
C405   O440    1.373   .     S
C405   N428    1.368   1_556 A
C406   C410    1.403   .     A
C406   C407    1.410   1_556 A
C407   C408    1.408   .     A
C407   C413    1.413   .     A
C407   C406    1.410   1_554 A
C408   C409    1.404   .     A
C408   C416    1.405   .     A
C409   N428    1.371   .     A
C409   O439    1.373   .     S
C410   C411    1.395   .     A
C410   H441    1.083   .     S
C411   C412    1.405   .     A
C411   H443    1.083   .     S
C412   C417    1.403   .     A
C412   C413    1.408   1_556 A
C413   C414    1.410   .     A
C413   C412    1.408   1_554 A
C414   C415    1.406   .     A
C414   C418    1.407   .     A
C415   C416    1.398   .     A
C415   H447    1.083   .     S
C416   H442    1.084   .     S
C417   N429    1.371   .     A
C417   O450    1.373   .     S
C418   O449    1.373   .     S
C418   N429    1.370   1_554 A
C419   C424    1.413   .     A
C419   C425    1.416   .     A
C419   N429    1.441   .     S
C420   H444    1.110   .     S
C420   C425    1.507   1_554 S
C420   H445    1.107   1_554 S
C420   H451    1.110   1_554 S
C421   C425    1.404   .     A
C421   C426    1.401   .     A
C421   H446    1.084   .     S
C422   C424    1.507   .     S
C422   H430    1.109   .     S
C422   H448    1.110   .     S
C422   H427    1.110   1_556 S
C423   C424    1.402   .     A
C423   C426    1.402   .     A
C425   C420    1.507   1_556 S
H427   C422    1.110   1_554 S
N428   C405    1.368   1_554 A
N429   C418    1.370   1_556 A
H432   C402    1.084   1_556 S
H438   C404    1.109   1_554 S
H445   C420    1.107   1_556 S
H451   C420    1.110   1_556 S
H452   C479    1.080   .     S
C453   C454    1.400   .     A
C453   C458    1.397   1_556 A
C454   C455    1.399   .     A
C454   H487    1.085   .     S
C455   C456    1.410   .     A
C455   C459    1.505   .     S
C456   N484    1.441   .     S
C456   C457    1.414   1_556 A
C457   C458    1.406   .     A
C457   C460    1.502   .     S
C457   C456    1.414   1_554 A
C458   H488    1.083   .     S
C458   C453    1.397   1_554 A
C459   H489    1.111   .     S
C459   H490    1.110   .     S
C459   H491    1.110   .     S
C460   H492    1.109   .     S
C460   H493    1.111   .     S
C460   H494    1.110   .     S
C461   C462    1.403   .     A
C461   N484    1.370   .     A
C461   O496    1.373   .     S
C462   C463    1.409   .     A
C462   C466    1.404   .     A
C463   C464    1.409   .     A
C463   C469    1.414   .     A
C464   C465    1.408   .     A
C464   C472    1.407   .     A
C465   N484    1.370   .     A
C465   O495    1.372   .     S
C466   C467    1.395   .     A
C466   H497    1.083   1_556 S
C467   C468    1.404   .     A
C467   H499    1.083   1_556 S
C468   C469    1.409   .     A
C468   C473    1.402   .     A
C469   C470    1.409   .     A
C470   C471    1.406   .     A
C470   C474    1.408   .     A
C471   C472    1.399   .     A
C471   H503    1.083   .     S
C472   H498    1.083   .     S
C473   N485    1.369   .     A
C473   O506    1.374   1_556 S
C474   N485    1.370   .     A
C474   O505    1.373   .     S
C475   C481    1.413   .     A
C475   N485    1.439   .     S
C475   C480    1.414   1_556 A
C476   C481    1.508   .     S
C476   H500    1.111   .     S
C476   H501    1.108   .     S
C476   H507    1.111   .     S
C477   C481    1.397   .     A
C477   C482    1.401   .     A
C477   H502    1.085   .     S
C478   C480    1.504   .     S
C478   H483    1.111   .     S
C478   H486    1.110   .     S
C478   H504    1.111   .     S
C479   C480    1.406   .     A
C479   C482    1.397   1_554 A
C480   C475    1.414   1_554 A
C482   C479    1.397   1_556 A
C482   C15     1.470   1_556 S
H497   C466    1.083   1_554 S
H499   C467    1.083   1_554 S
O506   C473    1.374   1_554 S
H508   C535    1.081   1_556 S
C509   C510    1.407   .     A
C509   C514    1.400   1_554 A
C510   C511    1.403   .     A
C510   H543    1.084   .     S
C511   C512    1.411   .     A
C511   C515    1.507   .     S
C512   N540    1.445   .     S
C512   C513    1.412   1_554 A
C513   C514    1.407   .     A
C513   C516    1.503   .     S
C513   C512    1.412   1_556 A
C514   H544    1.078   .     S
C514   C509    1.400   1_556 A
C515   H545    1.110   .     S
C515   H546    1.109   .     S
C515   H547    1.111   .     S
C516   H548    1.110   .     S
C516   H549    1.109   .     S
C516   H550    1.109   .     S
C517   C518    1.405   .     A
C517   O552    1.373   .     S
C517   N540    1.370   1_556 A
C518   C522    1.405   .     A
C518   C519    1.408   1_556 A
C519   C520    1.408   .     A
C519   C525    1.414   .     A
C519   C518    1.408   1_554 A
C520   C521    1.408   .     A
C520   C528    1.407   .     A
C521   N540    1.372   .     A
C521   O551    1.372   .     S
C522   C523    1.396   .     A
C522   H553    1.082   .     S
C523   C524    1.404   .     A
C523   H555    1.083   .     S
C524   C529    1.404   .     A
C524   C525    1.409   1_556 A
C525   C526    1.409   .     A
C525   C524    1.409   1_554 A
C526   C527    1.405   .     A
C526   C530    1.406   .     A
C527   C528    1.398   .     A
C527   H559    1.083   .     S
C528   H554    1.083   .     S
C529   O562    1.373   .     S
C529   N541    1.369   1_556 A
C530   N541    1.370   .     A
C530   O561    1.373   .     S
C531   C536    1.415   .     A
C531   C537    1.415   .     A
C531   N541    1.440   .     S
C532   C537    1.510   .     S
C532   H556    1.113   .     S
C532   H557    1.109   .     S
C532   H563    1.110   .     S
C533   C537    1.400   .     A
C533   C538    1.404   .     A
C533   H558    1.085   .     S
C534   H542    1.109   .     S
C534   H560    1.109   .     S
C534   C536    1.507   1_556 S
C534   H539    1.109   1_556 S
C535   C536    1.404   .     A
C535   C538    1.400   .     A
C535   H508    1.081   1_554 S
C536   C534    1.507   1_554 S
H539   C534    1.109   1_554 S
N540   C517    1.370   1_554 A
N541   C529    1.369   1_554 A
