data_kag+N173+E229
_audit_creation_date              2025-01-21
_audit_creation_method            'Materials Studio'
_symmetry_space_group_name_H-M    'P1'
_symmetry_Int_Tables_number       1
_symmetry_cell_setting            triclinic
loop_
_symmetry_equiv_pos_as_xyz
  x,y,z
_cell_length_a                    49.2385
_cell_length_b                    47.1966
_cell_length_c                    22.8238
_cell_angle_alpha                 95.0407
_cell_angle_beta                  95.8956
_cell_angle_gamma                 120.4340
loop_
_atom_site_label
_atom_site_type_symbol
_atom_site_fract_x
_atom_site_fract_y
_atom_site_fract_z
_atom_site_U_iso_or_equiv
_atom_site_adp_type
_atom_site_occupancy
Gd0    Gd    0.52072   0.50036   1.01137   0.00000  Uiso   1.00
Gd1    Gd    0.52905   0.55277   0.01197   0.00000  Uiso   1.00
O2     O     0.53867   0.56084   0.10988   0.00000  Uiso   1.00
O3     O     0.53346   0.51171   0.11168   0.00000  Uiso   1.00
O4     O     0.46926   0.48064   0.01429   0.00000  Uiso   1.00
O5     O     0.47631   0.53063   1.01197   0.00000  Uiso   1.00
O6     O     0.51815   0.45164   1.00713   0.00000  Uiso   1.00
O7     O     0.47522   0.45045   0.00843   0.00000  Uiso   1.00
O8     O     0.50917   0.49009   0.91285   0.00000  Uiso   1.00
C9     C     0.48841   0.43351   1.00249   0.00000  Uiso   1.00
O10    O     0.51764   0.54059   0.91179   0.00000  Uiso   1.00
O11    O     0.57131   0.52101   1.00753   0.00000  Uiso   1.00
C12    C     0.45777   0.49949   0.01176   0.00000  Uiso   1.00
O13    O     0.58223   0.57264   0.01702   0.00000  Uiso   1.00
O14    O     0.53597   0.60376   0.01185   0.00000  Uiso   1.00
O15    O     0.52394   0.57333   0.92878   0.00000  Uiso   1.00
C16    C     0.54103   0.54028   0.13851   0.00000  Uiso   1.00
C17    C     0.52871   0.60055  -0.04400   0.00000  Uiso   1.00
C18    C     0.59150   0.55179   0.01984   0.00000  Uiso   1.00
C19    C     0.50828   0.51156   0.88470   0.00000  Uiso   1.00
Gd20   Gd    1.00457   0.55676   0.98333   0.00000  Uiso   1.00
Gd21   Gd    0.05322   0.51157   0.02566   0.00000  Uiso   1.00
O22    O     0.03571   0.52895   0.10179   0.00000  Uiso   1.00
O23    O    -0.00916   0.52418   0.05634   0.00000  Uiso   1.00
O24    O     0.05055   0.58723   0.05089   0.00000  Uiso   1.00
O25    O     0.07581   0.56511   0.01234   0.00000  Uiso   1.00
O26    O     0.95625   0.54035   0.93552   0.00000  Uiso   1.00
O27    O     0.97351   0.57323   0.01959   0.00000  Uiso   1.00
O28    O     0.01880   0.53517   0.90755   0.00000  Uiso   1.00
C29    C     0.95134   0.55784  -0.02612   0.00000  Uiso   1.00
O30    O     0.06421   0.54649   0.95786   0.00000  Uiso   1.00
O31    O     0.97848   0.50373   1.00077   0.00000  Uiso   1.00
C32    C     0.07592   0.58660   0.05042   0.00000  Uiso   1.00
O33    O     1.00427   0.48017   0.96587   0.00000  Uiso   1.00
O34    O     0.10427   0.53468   0.06235   0.00000  Uiso   1.00
O35    O     0.08589   0.50356   0.97561   0.00000  Uiso   1.00
C36    C     0.01016   0.52952   0.10440   0.00000  Uiso   1.00
C37    C     0.11051   0.52457   0.01456   0.00000  Uiso   1.00
C38    C     0.97857   0.48053   0.96737   0.00000  Uiso   1.00
C39    C     0.04566   0.53770   0.90792   0.00000  Uiso   1.00
Gd40   Gd    0.48722  -0.00125   0.99828   0.00000  Uiso   1.00
Gd41   Gd    0.56745   0.04769   0.02562   0.00000  Uiso   1.00
O42    O     0.52626   0.02782   0.07581   0.00000  Uiso   1.00
O43    O     0.52749   0.02864   0.07615   0.00000  Uiso   1.00
O44    O     0.48923   0.04717   0.00163   0.00000  Uiso   1.00
O45    O     0.54147   0.07372   0.99173   0.00000  Uiso   1.00
O46    O     0.43917   0.96671   0.94515   0.00000  Uiso   1.00
O47    O     0.44400   0.97406   0.04142   0.00000  Uiso   1.00
O48    O     0.50622   0.00481   0.91195   0.00000  Uiso   1.00
C49    C     0.42541   0.96010   0.99065   0.00000  Uiso   1.00
O50    O     0.54780   0.05601   0.93727   0.00000  Uiso   1.00
O51    O     0.49662   0.95802   1.00674   0.00000  Uiso   1.00
C52    C     0.51708   0.07385   0.00833   0.00000  Uiso   1.00
O53    O     0.54166  -0.00576  -0.02020   0.00000  Uiso   1.00
O54    O     0.60515   0.10088   0.06075   0.00000  Uiso   1.00
O55    O     0.61284   0.07349   0.99049   0.00000  Uiso   1.00
C56    C     0.52447   0.03091   0.13085   0.00000  Uiso   1.00
C57    C     0.62431   0.10059   0.02704   0.00000  Uiso   1.00
C58    C     0.52615   0.96904   1.00559   0.00000  Uiso   1.00
C59    C     0.52577   0.03216   0.89731   0.00000  Uiso   1.00
C60    C     0.55631   0.57473   0.30112   0.00000  Uiso   1.00
C61    C     0.58976   0.59077   0.31341   0.00000  Uiso   1.00
C62    C     0.60644   0.58810   0.26972   0.00000  Uiso   1.00
C63    C     0.58986   0.56923   0.21385   0.00000  Uiso   1.00
C64    C     0.55638   0.55253   0.20106   0.00000  Uiso   1.00
C65    C     0.53965   0.55593   0.24450   0.00000  Uiso   1.00
C66    C     0.53883   0.57591   0.35007   0.00000  Uiso   1.00
H67    H     0.60289   0.60553   0.35672   0.00000  Uiso   1.00
H68    H     0.63230   0.60156   0.27843   0.00000  Uiso   1.00
H69    H     0.60342   0.56960   0.17953   0.00000  Uiso   1.00
H70    H     0.51396   0.54457   0.23392   0.00000  Uiso   1.00
H71    H     0.55024   0.60214   0.37280   0.00000  Uiso   1.00
H72    H     0.51337   0.56666   0.33237   0.00000  Uiso   1.00
C73    C     0.49515   0.49007   0.71812   0.00000  Uiso   1.00
C74    C     0.51000   0.49959   0.77796   0.00000  Uiso   1.00
C75    C     0.51370   0.49117   0.66993   0.00000  Uiso   1.00
C76    C     0.52662   0.51505   0.58052   0.00000  Uiso   1.00
C77    C     0.52418   0.53978   0.54550   0.00000  Uiso   1.00
C78    C     0.46338   0.48208   0.70310   0.00000  Uiso   1.00
C79    C     0.44672   0.48388   0.74772   0.00000  Uiso   1.00
C80    C     0.49346   0.50197   0.82225   0.00000  Uiso   1.00
H81    H     0.45181   0.47515   0.65684   0.00000  Uiso   1.00
H82    H     0.42217   0.47741   0.73620   0.00000  Uiso   1.00
H83    H     0.44872   0.49528   0.84175   0.00000  Uiso   1.00
H84    H     0.53449   0.50581   0.78990   0.00000  Uiso   1.00
H85    H     0.50060   0.46636   0.64078   0.00000  Uiso   1.00
C86    C     0.53021   0.55920   0.44626   0.00000  Uiso   1.00
C87    C     0.53309   0.53614   0.48496   0.00000  Uiso   1.00
H88    H     0.55172   0.52079   0.58799   0.00000  Uiso   1.00
H89    H     0.49925   0.53452   0.53986   0.00000  Uiso   1.00
H90    H     0.54061   0.56560   0.56982   0.00000  Uiso   1.00
H91    H     0.51065   0.48951   0.55458   0.00000  Uiso   1.00
H92    H     0.53795   0.49668   0.68875   0.00000  Uiso   1.00
H93    H     0.50485   0.55246   0.43699   0.00000  Uiso   1.00
H94    H     0.54584   0.58538   0.46950   0.00000  Uiso   1.00
N95    N     0.54076   0.55471   0.39097   0.00000  Uiso   1.00
N96    N     0.51666   0.51763   0.63754   0.00000  Uiso   1.00
C97    C     0.46181   0.49408   0.80721   0.00000  Uiso   1.00
C98    C     0.04818   0.51767   0.74325   0.00000  Uiso   1.00
C99    C     0.07965   0.52462   0.74743   0.00000  Uiso   1.00
C100   C     0.09953   0.53547   0.80273   0.00000  Uiso   1.00
C101   C     0.08828   0.53954   0.85453   0.00000  Uiso   1.00
C102   C     0.05681   0.53282   0.85186   0.00000  Uiso   1.00
C103   C     0.03677   0.52178   0.79569   0.00000  Uiso   1.00
C104   C     0.02699   0.50469   0.68294   0.00000  Uiso   1.00
H105   H     0.08875   0.52153   0.70766   0.00000  Uiso   1.00
H106   H     0.12378   0.54079   0.80544   0.00000  Uiso   1.00
H107   H     0.10443   0.54815   0.89670   0.00000  Uiso   1.00
H108   H     0.01237   0.51606   0.79281   0.00000  Uiso   1.00
H109   H     0.02449   0.48050   0.66581   0.00000  Uiso   1.00
H110   H     0.00283   0.50021   0.68653   0.00000  Uiso   1.00
C111   C     0.01493   0.54907   0.27294   0.00000  Uiso   1.00
C112   C     0.02317   0.54356   0.21739   0.00000  Uiso   1.00
C113   C     0.03779   0.55940   0.33083   0.00000  Uiso   1.00
C114   C     0.03810   0.55052   0.43371   0.00000  Uiso   1.00
C115   C     0.02526   0.52376   0.47360   0.00000  Uiso   1.00
C116   C     0.98532   0.54636   0.27427   0.00000  Uiso   1.00
C117   C     0.96429   0.53851   0.22141   0.00000  Uiso   1.00
C118   C     0.00174   0.53500   0.16358   0.00000  Uiso   1.00
H119   H     0.97865   0.55062   0.31647   0.00000  Uiso   1.00
H120   H     0.94172   0.53702   0.22307   0.00000  Uiso   1.00
H121   H     0.95547   0.52686   0.12627   0.00000  Uiso   1.00
H122   H     0.04641   0.54656   0.21610   0.00000  Uiso   1.00
H123   H     0.04379   0.58472   0.35065   0.00000  Uiso   1.00
C124   C     0.02603   0.51297   0.58020   0.00000  Uiso   1.00
C125   C     0.03932   0.53910   0.53932   0.00000  Uiso   1.00
H126   H     0.06448   0.56218   0.43846   0.00000  Uiso   1.00
H127   H    -0.00123   0.51115   0.46728   0.00000  Uiso   1.00
H128   H     0.03183   0.50504   0.46069   0.00000  Uiso   1.00
H129   H     0.03255   0.56992   0.44804   0.00000  Uiso   1.00
H130   H     0.06031   0.56079   0.32299   0.00000  Uiso   1.00
H131   H    -0.00026   0.50196   0.57544   0.00000  Uiso   1.00
H132   H     0.03118   0.49315   0.56688   0.00000  Uiso   1.00
N133   N     0.04126   0.52864   0.64213   0.00000  Uiso   1.00
N134   N     0.02293   0.53545   0.37139   0.00000  Uiso   1.00
C135   C     0.97231   0.53280   0.16650   0.00000  Uiso   1.00
C136   C     0.57354   0.07524   0.28290   0.00000  Uiso   1.00
C137   C     0.60463   0.08672   0.27160   0.00000  Uiso   1.00
C138   C     0.60960   0.07854   0.21502   0.00000  Uiso   1.00
C139   C     0.58371   0.05981   0.16860   0.00000  Uiso   1.00
C140   C     0.55252   0.04927   0.17857   0.00000  Uiso   1.00
C141   C     0.54754   0.05610   0.23623   0.00000  Uiso   1.00
C142   C     0.56823   0.08440   0.34368   0.00000  Uiso   1.00
H143   H     0.62507   0.10153   0.30686   0.00000  Uiso   1.00
H144   H     0.63356   0.08663   0.20710   0.00000  Uiso   1.00
H145   H     0.58812   0.05367   0.12527   0.00000  Uiso   1.00
H146   H     0.52349   0.04748   0.24447   0.00000  Uiso   1.00
H147   H     0.59117   0.10525   0.37036   0.00000  Uiso   1.00
H148   H     0.55120   0.09332   0.33861   0.00000  Uiso   1.00
C149   C     0.51404   0.02381   0.72854   0.00000  Uiso   1.00
C150   C     0.52842   0.02707   0.78761   0.00000  Uiso   1.00
C151   C     0.52345   1.01203   0.67485   0.00000  Uiso   1.00
C152   C     0.53311   0.02282   0.57439   0.00000  Uiso   1.00
C153   C     0.53734   0.04784   0.53276   0.00000  Uiso   1.00
C154   C     0.48924   1.03035   0.71929   0.00000  Uiso   1.00
C155   C     0.47933   1.04067   0.76743   0.00000  Uiso   1.00
C156   C     0.51805   0.03707   0.83638   0.00000  Uiso   1.00
H157   H     0.47728   1.02706   0.67452   0.00000  Uiso   1.00
H158   H     0.45986   1.04513   0.75968   0.00000  Uiso   1.00
H159   H     0.48415   0.05002   0.86245   0.00000  Uiso   1.00
H160   H     0.54641   0.02042   0.79558   0.00000  Uiso   1.00
H161   H     0.50272   0.98731   0.65291   0.00000  Uiso   1.00
C162   C     0.54866   0.06429   0.43229   0.00000  Uiso   1.00
C163   C     0.54172   0.03726   0.47077   0.00000  Uiso   1.00
H164   H     0.55367   0.01896   0.57731   0.00000  Uiso   1.00
H165   H     0.51597   0.05033   0.52844   0.00000  Uiso   1.00
H166   H     0.55869   0.07244   0.55309   0.00000  Uiso   1.00
H167   H     0.51059   0.99873   0.55619   0.00000  Uiso   1.00
H168   H     0.54413   1.00910   0.68805   0.00000  Uiso   1.00
H169   H     0.52744   0.06690   0.42423   0.00000  Uiso   1.00
H170   H     0.56950   0.08818   0.45695   0.00000  Uiso   1.00
N171   N     0.55579   0.05561   0.37505   0.00000  Uiso   1.00
N172   N     0.53166   0.03619   0.63366   0.00000  Uiso   1.00
C173   C     0.49354   0.04393   0.82561   0.00000  Uiso   1.00
C174   C     0.37484   0.48482   0.02120   0.00000  Uiso   1.00
C175   C     0.35578   0.45221  -0.01008   0.00000  Uiso   1.00
C176   C     0.36982   0.43564   0.96624   0.00000  Uiso   1.00
C177   C     0.40300   0.45127   0.97413   0.00000  Uiso   1.00
C178   C     0.42269   0.48405   0.00502   0.00000  Uiso   1.00
C179   C     0.40840   0.50103   0.02781   0.00000  Uiso   1.00
C180   C     0.35881   0.50122   0.04837   0.00000  Uiso   1.00
H181   H     0.32997   0.43951  -0.01546   0.00000  Uiso   1.00
H182   H     0.35492   0.41043   0.94239   0.00000  Uiso   1.00
H183   H     0.41331   0.43782   0.95515   0.00000  Uiso   1.00
H184   H     0.42314   0.52634   0.05139   0.00000  Uiso   1.00
H185   H     0.34422   0.48527   0.07963   0.00000  Uiso   1.00
H186   H     0.37654   0.52619   0.07443   0.00000  Uiso   1.00
C187   C     0.18564   0.54029   0.95528   0.00000  Uiso   1.00
C188   C     0.15468   0.52312   0.96972   0.00000  Uiso   1.00
C189   C     0.20004   0.52205   0.92814   0.00000  Uiso   1.00
C190   C     0.24715   0.51842   0.94922   0.00000  Uiso   1.00
C191   C     0.26888   0.51709   0.99979   0.00000  Uiso   1.00
C192   C     0.20440   0.57511   0.97010   0.00000  Uiso   1.00
C193   C     0.19295   0.59263   0.00058   0.00000  Uiso   1.00
C194   C     0.14343   0.54070   1.00183   0.00000  Uiso   1.00
H195   H     0.22805   0.58865   0.95837   0.00000  Uiso   1.00
H196   H     0.20732   0.61954   0.01098   0.00000  Uiso   1.00
H197   H     0.15447   0.58976   0.04058   0.00000  Uiso   1.00
H198   H     0.13986   0.49632   0.95734   0.00000  Uiso   1.00
H199   H     0.21114   0.53399   0.89008   0.00000  Uiso   1.00
C200   C     0.31527   0.50983   0.02566   0.00000  Uiso   1.00
C201   C     0.29481   0.51334   0.97582   0.00000  Uiso   1.00
H202   H     0.23486   0.49455   0.91737   0.00000  Uiso   1.00
H203   H     0.28017   0.54039   0.03288   0.00000  Uiso   1.00
H204   H     0.25434   0.49555   0.02222   0.00000  Uiso   1.00
H205   H     0.26172   0.53948   0.92578   0.00000  Uiso   1.00
H206   H     0.18158   0.49556   0.91091   0.00000  Uiso   1.00
H207   H     0.32766   0.53291   0.05951   0.00000  Uiso   1.00
H208   H     0.29945   0.48798   0.04633   0.00000  Uiso   1.00
N209   N     0.33873   0.50448   1.00083   0.00000  Uiso   1.00
N210   N     0.22374   0.52367   0.97466   0.00000  Uiso   1.00
C211   C     0.16296   0.57553   0.01744   0.00000  Uiso   1.00
C212   C     0.89979   0.39977   0.91210   0.00000  Uiso   1.00
C213   C     0.88723   0.40886   0.86424   0.00000  Uiso   1.00
C214   C     0.90516   0.44043   0.84869   0.00000  Uiso   1.00
C215   C     0.93562   0.46322   0.88096   0.00000  Uiso   1.00
C216   C     0.94833   0.45473   0.92947   0.00000  Uiso   1.00
C217   C     0.93045   0.42290   0.94473   0.00000  Uiso   1.00
C218   C     0.88110   0.36507   0.92619   0.00000  Uiso   1.00
H219   H     0.86368   0.39138   0.83863   0.00000  Uiso   1.00
H220   H     0.89539   0.44735   0.81177   0.00000  Uiso   1.00
H221   H     0.94915   0.48764   0.86846   0.00000  Uiso   1.00
H222   H     0.94004   0.41644   0.98263   0.00000  Uiso   1.00
H223   H     0.87507   0.34727   0.88467   0.00000  Uiso   1.00
H224   H     0.89582   0.36090   0.96055   0.00000  Uiso   1.00
C225   C     0.70070   0.18631   0.04649   0.00000  Uiso   1.00
C226   C     0.66785   0.16155   0.03842   0.00000  Uiso   1.00
C227   C     0.71208   0.22276   0.04847   0.00000  Uiso   1.00
C228   C     0.75511   0.27088   0.01524   0.00000  Uiso   1.00
C229   C     0.77773   0.27985   0.96964   0.00000  Uiso   1.00
C230   C     0.72354   0.17682   0.05256   0.00000  Uiso   1.00
C231   C     0.71394   0.14327   0.04741   0.00000  Uiso   1.00
C232   C     0.65818   0.12760   0.03352   0.00000  Uiso   1.00
H233   H     0.74884   0.19544   0.06017   0.00000  Uiso   1.00
H234   H     0.73170   0.13616   0.05172   0.00000  Uiso   1.00
H235   H     0.67465   0.09288   0.03367   0.00000  Uiso   1.00
H236   H     0.65006   0.16863   0.03556   0.00000  Uiso   1.00
H237   H     0.72652   0.23626   0.09334   0.00000  Uiso   1.00
C238   C     0.82863   0.32379   0.94074   0.00000  Uiso   1.00
C239   C     0.80389   0.31686   0.98145   0.00000  Uiso   1.00
H240   H     0.74318   0.28554   0.01360   0.00000  Uiso   1.00
H241   H     0.78905   0.26458   0.97175   0.00000  Uiso   1.00
H242   H     0.76379   0.27378   0.92409   0.00000  Uiso   1.00
H243   H     0.76946   0.27701   0.06048   0.00000  Uiso   1.00
H244   H     0.69162   0.22667   0.04205   0.00000  Uiso   1.00
H245   H     0.84048   0.30971   0.95203   0.00000  Uiso   1.00
H246   H     0.81643   0.31510   0.89340   0.00000  Uiso   1.00
N247   N     0.85218   0.35955   0.94858   0.00000  Uiso   1.00
N248   N     0.73102   0.23514   0.00092   0.00000  Uiso   1.00
C249   C     0.68152   0.11880   0.03686   0.00000  Uiso   1.00
C250   C     0.86757   0.54359   0.95595   0.00000  Uiso   1.00
C251   C     0.87161   0.56854   0.92224   0.00000  Uiso   1.00
C252   C     0.90164   0.59083   0.90953   0.00000  Uiso   1.00
C253   C     0.92787   0.58814   0.92946   0.00000  Uiso   1.00
C254   C     0.92423   0.56283  -0.03817   0.00000  Uiso   1.00
C255   C     0.89405   0.54065   0.97549   0.00000  Uiso   1.00
C256   C     0.83487   0.52051   0.96985   0.00000  Uiso   1.00
H257   H     0.85141   0.57069   0.90577   0.00000  Uiso   1.00
H258   H     0.90448   0.60990   0.88331   0.00000  Uiso   1.00
H259   H     0.95085   0.60525   0.91799   0.00000  Uiso   1.00
H260   H     0.89115   0.52104   0.00028   0.00000  Uiso   1.00
H261   H     0.81809   0.50743   0.92673   0.00000  Uiso   1.00
H262   H     0.83479   0.50120   0.99449   0.00000  Uiso   1.00
C263   C     0.67932   0.57818   0.05678   0.00000  Uiso   1.00
C264   C     0.65194   0.57781   0.02944   0.00000  Uiso   1.00
C265   C     0.70995   0.59354   0.03235   0.00000  Uiso   1.00
C266   C     0.74749   0.57438   0.02987   0.00000  Uiso   1.00
C267   C     0.75066   0.54519   0.00530   0.00000  Uiso   1.00
C268   C     0.67769   0.56192   0.10614   0.00000  Uiso   1.00
C269   C     0.64918   0.54462   0.12738   0.00000  Uiso   1.00
C270   C     0.62305   0.56017   0.05103   0.00000  Uiso   1.00
H271   H     0.69836   0.56177   0.12707   0.00000  Uiso   1.00
H272   H     0.64767   0.53121   0.16425   0.00000  Uiso   1.00
H273   H     0.59977   0.52788   0.11479   0.00000  Uiso   1.00
H274   H     0.65272   0.58938  -0.00976   0.00000  Uiso   1.00
H275   H     0.72960   0.61211   0.06884   0.00000  Uiso   1.00
C276   C     0.79126   0.52800   0.99184   0.00000  Uiso   1.00
C277   C     0.78493   0.55336   0.02363   0.00000  Uiso   1.00
H278   H     0.76494   0.59723   0.01357   0.00000  Uiso   1.00
H279   H     0.73392   0.52247   0.02281   0.00000  Uiso   1.00
H280   H     0.74430   0.54041   0.95581   0.00000  Uiso   1.00
H281   H     0.75257   0.57842   0.07956   0.00000  Uiso   1.00
H282   H     0.70881   0.60696  -0.00446   0.00000  Uiso   1.00
H283   H     0.77709   0.50355   1.00676   0.00000  Uiso   1.00
H284   H     0.78412   0.52543   0.94290   0.00000  Uiso   1.00
N285   N     0.82542   0.54014   1.00655   0.00000  Uiso   1.00
N286   N     0.71503   0.56684   0.00917   0.00000  Uiso   1.00
C287   C     0.62211   0.54329   0.09948   0.00000  Uiso   1.00
C288   C     0.34261   0.88328   0.95755   0.00000  Uiso   1.00
C289   C     0.32467   0.89763   0.94039   0.00000  Uiso   1.00
C290   C     0.33940   0.93215   0.94471   0.00000  Uiso   1.00
C291   C     0.37209   0.95270   0.96623   0.00000  Uiso   1.00
C292   C     0.39051   0.93890   0.98280   0.00000  Uiso   1.00
C293   C     0.37573   0.90413   0.97847   0.00000  Uiso   1.00
C294   C     0.32629   0.84590   0.95096   0.00000  Uiso   1.00
H295   H     0.29942   0.88200   0.92225   0.00000  Uiso   1.00
H296   H     0.32578   0.94300   0.92901   0.00000  Uiso   1.00
H297   H     0.38330   0.97932   0.96727   0.00000  Uiso   1.00
H298   H     0.39016   0.89340  -0.01070   0.00000  Uiso   1.00
H299   H     0.31498   0.83499   0.90346   0.00000  Uiso   1.00
H300   H     0.34374   0.83814   0.96314   0.00000  Uiso   1.00
C301   C     0.15370   0.66677   0.11144   0.00000  Uiso   1.00
C302   C     0.12279   0.64422   0.07962   0.00000  Uiso   1.00
C303   C     0.17123   0.70227   0.10167   0.00000  Uiso   1.00
C304   C     0.21615   0.74359   0.06514   0.00000  Uiso   1.00
C305   C     0.23869   0.74988   0.02039   0.00000  Uiso   1.00
C306   C     0.16779   0.65611   0.15376   0.00000  Uiso   1.00
C307   C     0.15050   0.62377   0.16641   0.00000  Uiso   1.00
C308   C     0.10596   0.61133   0.09023   0.00000  Uiso   1.00
H309   H     0.19192   0.67298   0.17760   0.00000  Uiso   1.00
H310   H     0.16110   0.61595   0.20040   0.00000  Uiso   1.00
H311   H     0.10661   0.57650   0.14531   0.00000  Uiso   1.00
H312   H     0.11223   0.65198   0.04542   0.00000  Uiso   1.00
H313   H     0.18159   0.71874   0.14597   0.00000  Uiso   1.00
C314   C     0.28368   0.79746   0.98148   0.00000  Uiso   1.00
C315   C     0.26027   0.78745   0.02483   0.00000  Uiso   1.00
H316   H     0.20090   0.75391   0.05184   0.00000  Uiso   1.00
H317   H     0.25331   0.73858   0.03078   0.00000  Uiso   1.00
H318   H     0.22462   0.73874   0.97452   0.00000  Uiso   1.00
H319   H     0.23046   0.75665   0.11032   0.00000  Uiso   1.00
H320   H     0.15435   0.70818   0.07764   0.00000  Uiso   1.00
H321   H     0.29980   0.78781   0.99164   0.00000  Uiso   1.00
H322   H     0.27013   0.78689   0.93513   0.00000  Uiso   1.00
N323   N     0.30203   0.83382   0.98941   0.00000  Uiso   1.00
N324   N     0.19630   0.70795   0.06661   0.00000  Uiso   1.00
C325   C     0.11963   0.60148   0.13504   0.00000  Uiso   1.00
C326   C     0.54545   0.91250   0.08638   0.00000  Uiso   1.00
C327   C     0.57701   0.93564   0.11439   0.00000  Uiso   1.00
C328   C     0.59192   0.96860   0.10462   0.00000  Uiso   1.00
C329   C     0.57553   0.97877   0.06699   0.00000  Uiso   1.00
C330   C     0.54353   0.95637   0.04024   0.00000  Uiso   1.00
C331   C     0.52845   0.92317   0.05040   0.00000  Uiso   1.00
C332   C     0.53111   0.87635   0.09192   0.00000  Uiso   1.00
H333   H     0.59014   0.92810   0.14348   0.00000  Uiso   1.00
H334   H     0.61625  -0.01364   0.12626   0.00000  Uiso   1.00
H335   H     0.58763   0.00456   0.06044   0.00000  Uiso   1.00
H336   H     0.50393   0.90558   0.02931   0.00000  Uiso   1.00
H337   H     0.53717   0.87409   0.13894   0.00000  Uiso   1.00
H338   H     0.50462   0.86279   0.07995   0.00000  Uiso   1.00
C339   C     0.53319   0.67979   0.92068   0.00000  Uiso   1.00
C340   C     0.54112   0.65836   0.94661   0.00000  Uiso   1.00
C341   C     0.55300   0.71688   0.94038   0.00000  Uiso   1.00
C342   C     0.54781   0.76384   0.97166   0.00000  Uiso   1.00
C343   C     0.53258   0.77611   0.01415   0.00000  Uiso   1.00
C344   C     0.50641   0.66632   0.87533   0.00000  Uiso   1.00
C345   C     0.48823   0.63209   0.85505   0.00000  Uiso   1.00
C346   C     0.52283   0.62385   0.92618   0.00000  Uiso   1.00
H347   H     0.49968   0.68239   0.85559   0.00000  Uiso   1.00
H348   H     0.46749   0.62189   0.82030   0.00000  Uiso   1.00
H349   H     0.48178   0.58439   0.86437   0.00000  Uiso   1.00
H350   H     0.56132   0.66845   0.98253   0.00000  Uiso   1.00
H351   H     0.56025   0.72892   0.90027   0.00000  Uiso   1.00
C352   C     0.53164   0.82695   0.05677   0.00000  Uiso   1.00
C353   C     0.54501   0.81298   1.01308   0.00000  Uiso   1.00
H354   H     0.57417   0.77787   0.98704   0.00000  Uiso   1.00
H355   H     0.50618   0.76148   1.00010   0.00000  Uiso   1.00
H356   H     0.53854   0.77249   0.06016   0.00000  Uiso   1.00
H357   H     0.54266   0.76848   0.92603   0.00000  Uiso   1.00
H358   H     0.57511   0.72396   0.97159   0.00000  Uiso   1.00
H359   H     0.50509   0.81252   0.04554   0.00000  Uiso   1.00
H360   H     0.53944   0.82484   0.10282   0.00000  Uiso   1.00
N361   N     0.54399   0.86193   0.05198   0.00000  Uiso   1.00
N362   N     0.53435   0.72806   0.97033   0.00000  Uiso   1.00
C363   C     0.49657   0.61097   0.87986   0.00000  Uiso   1.00
C364   C     0.47490   0.34843   0.95139   0.00000  Uiso   1.00
C365   C     0.44150   0.32950   0.93532   0.00000  Uiso   1.00
C366   C     0.42326   0.34391   0.94550   0.00000  Uiso   1.00
C367   C     0.43817   0.37754   0.97038   0.00000  Uiso   1.00
C368   C     0.47159   0.39699  -0.01445   0.00000  Uiso   1.00
C369   C     0.48969   0.38201   0.97703   0.00000  Uiso   1.00
C370   C     0.49460   0.33296   0.94043   0.00000  Uiso   1.00
H371   H     0.42965   0.30372   0.91437   0.00000  Uiso   1.00
H372   H     0.39753   0.32912   0.93263   0.00000  Uiso   1.00
H373   H     0.42372   0.38853   0.97597   0.00000  Uiso   1.00
H374   H     0.51548   0.39678  -0.01103   0.00000  Uiso   1.00
H375   H     0.48813   0.32110   0.89281   0.00000  Uiso   1.00
H376   H     0.52054   0.35231   0.94933   0.00000  Uiso   1.00
C377   C     0.51003   0.14778   0.06474   0.00000  Uiso   1.00
C378   C     0.50327   0.11803   0.02996   0.00000  Uiso   1.00
C379   C     0.48997   0.16278   0.05251   0.00000  Uiso   1.00
C380   C     0.49706   0.21629   0.04031   0.00000  Uiso   1.00
C381   C     0.51038   0.24324   0.00104   0.00000  Uiso   1.00
C382   C     0.53632   0.16417   0.11158   0.00000  Uiso   1.00
C383   C     0.55556   0.15102   0.12415   0.00000  Uiso   1.00
C384   C     0.52312   0.10521   0.04179   0.00000  Uiso   1.00
H385   H     0.54178   0.18708   0.13854   0.00000  Uiso   1.00
H386   H     0.57553   0.16345   0.16087   0.00000  Uiso   1.00
H387   H     0.56366   0.11145   0.10129   0.00000  Uiso   1.00
H388   H     0.48334   0.10545  -0.00681   0.00000  Uiso   1.00
H389   H     0.48267   0.16747   0.09516   0.00000  Uiso   1.00
C390   C     0.50518   0.29083   0.96868   0.00000  Uiso   1.00
C391   C     0.49690   0.26572   0.01139   0.00000  Uiso   1.00
H392   H     0.47044   0.20240   0.03015   0.00000  Uiso   1.00
H393   H     0.53692   0.25824   0.01232   0.00000  Uiso   1.00
H394   H     0.50317   0.23124   0.95344   0.00000  Uiso   1.00
H395   H     0.50508   0.22812   0.08814   0.00000  Uiso   1.00
H396   H     0.46799   0.14544   0.01958   0.00000  Uiso   1.00
H397   H     0.53147   0.30871   0.97702   0.00000  Uiso   1.00
H398   H     0.49736   0.27752   0.92181   0.00000  Uiso   1.00
N399   N     0.48823   0.30824   0.97975   0.00000  Uiso   1.00
N400   N     0.50873   0.19368   0.02892   0.00000  Uiso   1.00
C401   C     0.54894   0.12171   0.08966   0.00000  Uiso   1.00
loop_
_geom_bond_atom_site_label_1
_geom_bond_atom_site_label_2
_geom_bond_distance
_geom_bond_site_symmetry_2
_ccdc_geom_bond_type
Gd0    O6      2.231   .     S
Gd0    O8      2.209   .     S
Gd0    O11     2.183   .     S
Gd0    O3      2.252   1_556 S
Gd0    O4      2.224   1_556 S
Gd0    O7      2.273   1_556 S
Gd1    O2      2.194   .     S
Gd1    O13     2.276   .     S
Gd1    O14     2.253   .     S
Gd1    O5      2.256   1_554 S
Gd1    O10     2.248   1_554 S
Gd1    O15     2.255   1_554 S
O2     C16     1.262   .     A
O3     C16     1.277   .     A
O3     Gd0     2.252   1_554 S
O4     C12     1.275   .     A
O4     Gd0     2.224   1_554 S
O5     Gd1     2.256   1_556 S
O5     C12     1.278   1_556 A
O6     C9      1.253   .     A
O7     Gd0     2.273   1_554 S
O7     C9      1.267   1_554 A
O8     C19     1.263   .     A
C9     O7      1.267   1_556 A
C9     C368    1.476   1_556 S
O10    C19     1.275   .     A
O10    Gd1     2.248   1_556 S
O11    C18     1.259   1_556 A
C12    C178    1.480   .     S
C12    O5      1.278   1_554 A
O13    C18     1.281   .     A
O14    C17     1.262   .     A
O15    Gd1     2.255   1_556 S
O15    C17     1.271   1_556 A
C16    C64     1.461   .     S
C17    O15     1.271   1_554 A
C17    C346    1.473   1_554 S
C18    C270    1.476   .     S
C18    O11     1.259   1_554 A
C19    C80     1.452   .     S
Gd20   O26     2.214   .     S
Gd20   O31     2.257   .     S
Gd20   O23     2.286   1_656 S
Gd20   O24     2.273   1_656 S
Gd20   O27     2.231   1_556 S
Gd20   O28     2.277   1_655 S
Gd21   O22     2.283   .     S
Gd21   O25     2.252   .     S
Gd21   O34     2.200   .     S
Gd21   O30     2.263   1_554 S
Gd21   O33     2.284   1_454 S
Gd21   O35     2.226   1_554 S
O22    C36     1.279   .     A
O23    C36     1.291   .     A
O23    Gd20    2.286   1_454 S
O24    C32     1.266   .     A
O24    Gd20    2.273   1_454 S
O25    C32     1.274   .     A
O26    C29     1.275   1_556 A
O27    C29     1.280   .     A
O27    Gd20    2.231   1_554 S
O28    C39     1.265   .     A
O28    Gd20    2.277   1_455 S
C29    C254    1.472   .     S
C29    O26     1.275   1_554 A
O30    C39     1.275   .     A
O30    Gd21    2.263   1_556 S
O31    C38     1.280   .     A
C32    C308    1.471   .     S
O33    C38     1.278   .     A
O33    Gd21    2.284   1_656 S
O34    C37     1.280   .     A
O35    Gd21    2.226   1_556 S
O35    C37     1.284   1_556 A
C36    C118    1.492   .     S
C37    O35     1.284   1_554 A
C37    C194    1.475   1_554 S
C38    C216    1.470   .     S
C39    C102    1.487   .     S
Gd40   O48     2.246   .     S
Gd40   O43     2.254   1_556 S
Gd40   O44     2.231   1_556 S
Gd40   O46     2.195   1_545 S
Gd40   O47     2.231   1_546 S
Gd40   O51     2.213   1_545 S
Gd41   O42     2.246   .     S
Gd41   O53     2.256   .     S
Gd41   O54     2.238   .     S
Gd41   O45     2.302   1_554 S
Gd41   O50     2.298   1_554 S
Gd41   O55     2.214   1_554 S
O42    C56     1.269   .     A
O43    C56     1.274   .     A
O43    Gd40    2.254   1_554 S
O44    C52     1.290   .     A
O44    Gd40    2.231   1_554 S
O45    Gd41    2.302   1_556 S
O45    C52     1.299   1_556 A
O46    C49     1.274   .     A
O46    Gd40    2.195   1_565 S
O47    Gd40    2.231   1_564 S
O47    C49     1.285   1_554 A
O48    C59     1.260   .     A
C49    C292    1.466   .     S
C49    O47     1.285   1_556 A
O50    C59     1.286   .     A
O50    Gd41    2.298   1_556 S
O51    C58     1.276   .     A
O51    Gd40    2.213   1_565 S
C52    C384    1.473   .     S
C52    O45     1.299   1_554 A
O53    C58     1.280   1_544 A
O54    C57     1.282   .     A
O55    Gd41    2.214   1_556 S
O55    C57     1.279   1_556 A
C56    C140    1.469   .     S
C57    C232    1.480   .     S
C57    O55     1.279   1_554 A
C58    O53     1.280   1_566 A
C58    C330    1.475   1_556 S
C59    C156    1.473   .     S
C60    C61     1.403   .     A
C60    C65     1.405   .     A
C60    C66     1.492   .     S
C61    C62     1.391   .     A
C61    H67     1.082   .     S
C62    C63     1.391   .     A
C62    H68     1.082   .     S
C63    C64     1.403   .     A
C63    H69     1.076   .     S
C64    C65     1.400   .     A
C65    H70     1.083   .     S
C66    H71     1.114   .     S
C66    H72     1.112   .     S
C66    N95     1.457   .     S
C73    C74     1.399   .     A
C73    C75     1.488   .     S
C73    C78     1.406   .     A
C74    C80     1.393   .     A
C74    H84     1.083   .     S
C75    H85     1.113   .     S
C75    H92     1.112   .     S
C75    N96     1.459   .     S
C76    C77     1.517   .     S
C76    H88     1.113   .     S
C76    H91     1.114   .     S
C76    N96     1.454   .     S
C77    C87     1.514   .     S
C77    H89     1.113   .     S
C77    H90     1.112   .     S
C78    C79     1.394   .     A
C78    H81     1.083   .     S
C79    H82     1.082   .     S
C79    C97     1.394   .     A
C80    C97     1.402   .     A
H83    C97     1.083   .     S
C86    C87     1.511   .     S
C86    H93     1.112   .     S
C86    H94     1.113   .     S
C86    N95     1.451   .     S
C98    C99     1.402   .     A
C98    C103    1.412   .     A
C98    C104    1.506   .     S
C99    C100    1.392   .     A
C99    H105    1.083   .     S
C100   C101    1.394   .     A
C100   H106    1.082   .     S
C101   C102    1.409   .     A
C101   H107    1.082   .     S
C102   C103    1.411   .     A
C103   H108    1.083   .     S
C104   H109    1.114   .     S
C104   H110    1.111   .     S
C104   N133    1.468   .     S
C111   C112    1.412   .     A
C111   C113    1.509   .     S
C111   C116    1.402   1_455 A
C112   C118    1.414   .     A
C112   H122    1.083   .     S
C113   H123    1.114   .     S
C113   H130    1.111   .     S
C113   N134    1.468   .     S
C114   C115    1.528   .     S
C114   H126    1.113   .     S
C114   H129    1.113   .     S
C114   N134    1.467   .     S
C115   C125    1.530   .     S
C115   H127    1.112   .     S
C115   H128    1.111   .     S
C116   C117    1.393   .     A
C116   H119    1.083   .     S
C116   C111    1.402   1_655 A
C117   H120    1.082   .     S
C117   C135    1.396   .     A
C118   C135    1.408   1_455 A
H121   C135    1.083   .     S
C124   C125    1.526   .     S
C124   H131    1.112   .     S
C124   H132    1.113   .     S
C124   N133    1.464   .     S
C135   C118    1.408   1_655 A
C136   C137    1.403   .     A
C136   C141    1.403   .     A
C136   C142    1.505   .     S
C137   C138    1.396   .     A
C137   H143    1.082   .     S
C138   C139    1.395   .     A
C138   H144    1.082   .     S
C139   C140    1.405   .     A
C139   H145    1.080   .     S
C140   C141    1.403   .     A
C141   H146    1.084   .     S
C142   H147    1.114   .     S
C142   H148    1.114   .     S
C142   N171    1.467   .     S
C149   C150    1.414   .     A
C149   C151    1.511   1_545 S
C149   C154    1.404   1_545 A
C150   C156    1.411   .     A
C150   H160    1.084   .     S
C151   H161    1.113   .     S
C151   H168    1.111   .     S
C151   C149    1.511   1_565 S
C151   N172    1.465   1_565 S
C152   C153    1.526   .     S
C152   H164    1.112   .     S
C152   N172    1.466   .     S
C152   H167    1.113   1_545 S
C153   C163    1.531   .     S
C153   H165    1.112   .     S
C153   H166    1.112   .     S
C154   C155    1.393   .     A
C154   H157    1.082   .     S
C154   C149    1.404   1_565 A
C155   H158    1.082   .     S
C155   C173    1.393   1_565 A
C156   C173    1.404   .     A
H159   C173    1.084   .     S
C162   C163    1.527   .     S
C162   H169    1.112   .     S
C162   H170    1.113   .     S
C162   N171    1.464   .     S
H167   C152    1.113   1_565 S
N172   C151    1.465   1_545 S
C173   C155    1.393   1_545 A
C174   C175    1.402   .     A
C174   C179    1.409   .     A
C174   C180    1.497   .     S
C175   H181    1.083   .     S
C175   C176    1.390   1_554 A
C176   C177    1.393   .     A
C176   H182    1.082   .     S
C176   C175    1.390   1_556 A
C177   H183    1.082   .     S
C177   C178    1.407   1_556 A
C178   C179    1.407   .     A
C178   C177    1.407   1_554 A
C179   H184    1.082   .     S
C180   H185    1.115   .     S
C180   H186    1.110   .     S
C180   N209    1.464   1_554 S
C187   C188    1.410   .     A
C187   C189    1.497   .     S
C187   C192    1.403   .     A
C188   C194    1.405   .     A
C188   H198    1.083   .     S
C189   H199    1.115   .     S
C189   H206    1.110   .     S
C189   N210    1.461   .     S
C190   C191    1.519   .     S
C190   H202    1.113   .     S
C190   H205    1.113   .     S
C190   N210    1.459   .     S
C191   C201    1.522   .     S
C191   H203    1.112   1_556 S
C191   H204    1.113   1_556 S
C192   H195    1.084   .     S
C192   C193    1.392   1_556 A
C193   H196    1.083   .     S
C193   C211    1.394   .     A
C193   C192    1.392   1_554 A
C194   C211    1.407   1_556 A
C194   C37     1.475   1_556 S
H197   C211    1.083   .     S
C200   H207    1.112   .     S
C200   H208    1.113   .     S
C200   C201    1.518   1_554 S
C200   N209    1.457   1_554 S
C201   C200    1.518   1_556 S
H203   C191    1.112   1_554 S
H204   C191    1.113   1_554 S
N209   C180    1.464   1_556 S
N209   C200    1.457   1_556 S
C211   C194    1.407   1_554 A
C212   C213    1.404   .     A
C212   C217    1.408   .     A
C212   C218    1.503   .     S
C213   C214    1.397   .     A
C213   H219    1.083   .     S
C214   C215    1.396   .     A
C214   H220    1.083   .     S
C215   C216    1.403   .     A
C215   H221    1.083   .     S
C216   C217    1.403   .     A
C217   H222    1.083   .     S
C218   H223    1.114   .     S
C218   H224    1.111   .     S
C218   N247    1.468   .     S
C225   C226    1.415   .     A
C225   C227    1.510   .     S
C225   C230    1.405   .     A
C226   C232    1.411   .     A
C226   H236    1.083   .     S
C227   H237    1.112   .     S
C227   H244    1.110   .     S
C227   N248    1.468   .     S
C228   H240    1.112   .     S
C228   H243    1.113   .     S
C228   N248    1.468   .     S
C228   C229    1.530   1_554 S
C229   C239    1.533   .     S
C229   H241    1.113   .     S
C229   H242    1.112   .     S
C229   C228    1.530   1_556 S
C230   C231    1.394   .     A
C230   H233    1.083   .     S
C231   H234    1.083   .     S
C231   C249    1.394   .     A
C232   C249    1.404   .     A
H235   C249    1.084   .     S
C238   C239    1.529   .     S
C238   H245    1.114   .     S
C238   H246    1.112   .     S
C238   N247    1.465   .     S
C250   C251    1.404   .     A
C250   C255    1.412   .     A
C250   C256    1.506   .     S
C251   C252    1.394   .     A
C251   H257    1.083   .     S
C252   C253    1.395   .     A
C252   H258    1.083   .     S
C253   H259    1.083   .     S
C253   C254    1.404   1_556 A
C254   C253    1.404   1_554 A
C254   C255    1.407   1_554 A
C255   C254    1.407   1_556 A
C255   H260    1.083   1_556 S
C256   H261    1.114   .     S
C256   H262    1.111   .     S
C256   N285    1.469   .     S
H260   C255    1.083   1_554 S
C263   C264    1.417   .     A
C263   C265    1.499   .     S
C263   C268    1.404   .     A
C264   C270    1.405   .     A
C264   H274    1.082   .     S
C265   H275    1.116   .     S
C265   H282    1.109   .     S
C265   N286    1.469   .     S
C266   C267    1.529   .     S
C266   H278    1.112   .     S
C266   H281    1.114   .     S
C266   N286    1.464   .     S
C267   C277    1.529   .     S
C267   H279    1.112   .     S
C267   H280    1.112   1_554 S
C268   C269    1.386   .     A
C268   H271    1.083   .     S
C269   H272    1.083   .     S
C269   C287    1.386   .     A
C270   C287    1.410   .     A
H273   C287    1.084   .     S
C276   H283    1.112   .     S
C276   H284    1.113   .     S
C276   N285    1.464   .     S
C276   C277    1.526   1_556 S
C277   C276    1.526   1_554 S
H280   C267    1.112   1_556 S
C288   C289    1.405   .     A
C288   C293    1.410   .     A
C288   C294    1.508   .     S
C289   C290    1.396   .     A
C289   H295    1.083   .     S
C290   C291    1.395   .     A
C290   H296    1.083   .     S
C291   C292    1.400   .     A
C291   H297    1.083   .     S
C292   C293    1.407   .     A
C293   H298    1.083   1_556 S
C294   H299    1.113   .     S
C294   H300    1.112   .     S
C294   N323    1.461   .     S
H298   C293    1.083   1_554 S
C301   C302    1.405   .     A
C301   C303    1.497   .     S
C301   C306    1.403   .     A
C302   C308    1.400   .     A
C302   H312    1.083   .     S
C303   H313    1.114   .     S
C303   H320    1.112   .     S
C303   N324    1.463   .     S
C304   C305    1.522   .     S
C304   H316    1.115   .     S
C304   H319    1.113   .     S
C304   N324    1.462   .     S
C305   C315    1.523   .     S
C305   H317    1.112   .     S
C305   H318    1.112   1_554 S
C306   C307    1.396   .     A
C306   H309    1.084   .     S
C307   H310    1.083   .     S
C307   C325    1.398   .     A
C308   C325    1.405   .     A
H311   C325    1.081   .     S
C314   H321    1.112   .     S
C314   H322    1.113   .     S
C314   N323    1.461   .     S
C314   C315    1.515   1_556 S
C315   C314    1.515   1_554 S
H318   C305    1.112   1_556 S
C326   C327    1.404   .     A
C326   C331    1.410   .     A
C326   C332    1.504   .     S
C327   C328    1.395   .     A
C327   H333    1.083   .     S
C328   C329    1.394   .     A
C328   H334    1.082   1_565 S
C329   C330    1.405   .     A
C329   H335    1.084   1_565 S
C330   C331    1.407   .     A
C330   C58     1.475   1_554 S
C331   H336    1.083   .     S
C332   H337    1.113   .     S
C332   H338    1.112   .     S
C332   N361    1.464   .     S
H334   C328    1.082   1_545 S
H335   C329    1.084   1_545 S
C339   C340    1.409   .     A
C339   C341    1.503   .     S
C339   C344    1.403   .     A
C340   C346    1.405   .     A
C340   H350    1.083   .     S
C341   H351    1.114   .     S
C341   H358    1.111   .     S
C341   N362    1.465   .     S
C342   H354    1.114   .     S
C342   H357    1.113   .     S
C342   N362    1.465   .     S
C342   C343    1.526   1_556 S
C343   H356    1.112   .     S
C343   C342    1.526   1_554 S
C343   C353    1.528   1_554 S
C343   H355    1.112   1_554 S
C344   C345    1.394   .     A
C344   H347    1.083   .     S
C345   H348    1.083   .     S
C345   C363    1.396   .     A
C346   C363    1.403   .     A
C346   C17     1.473   1_556 S
H349   C363    1.083   .     S
C352   H359    1.112   .     S
C352   H360    1.112   .     S
C352   N361    1.461   .     S
C352   C353    1.524   1_554 S
C353   C343    1.528   1_556 S
C353   C352    1.524   1_556 S
H355   C343    1.112   1_556 S
C364   C365    1.403   .     A
C364   C369    1.402   .     A
C364   C370    1.507   .     S
C365   C366    1.399   .     A
C365   H371    1.082   .     S
C366   C367    1.399   .     A
C366   H372    1.082   .     S
C367   H373    1.083   .     S
C367   C368    1.403   1_556 A
C368   C367    1.403   1_554 A
C368   C369    1.408   1_554 A
C368   C9      1.476   1_554 S
C369   C368    1.408   1_556 A
C369   H374    1.082   1_556 S
C370   H375    1.112   .     S
C370   H376    1.113   .     S
C370   N399    1.462   .     S
H374   C369    1.082   1_554 S
C377   C378    1.410   .     A
C377   C379    1.497   .     S
C377   C382    1.405   .     A
C378   C384    1.403   .     A
C378   H388    1.083   .     S
C379   H389    1.114   .     S
C379   H396    1.111   .     S
C379   N400    1.465   .     S
C380   C381    1.526   .     S
C380   H392    1.114   .     S
C380   H395    1.114   .     S
C380   N400    1.463   .     S
C381   C391    1.524   .     S
C381   H393    1.112   .     S
C381   H394    1.112   1_554 S
C382   C383    1.391   .     A
C382   H385    1.084   .     S
C383   H386    1.083   .     S
C383   C401    1.393   .     A
C384   C401    1.407   .     A
H387   C401    1.081   .     S
C390   H397    1.113   .     S
C390   H398    1.113   .     S
C390   N399    1.462   .     S
C390   C391    1.522   1_556 S
C391   C390    1.522   1_554 S
H394   C381    1.112   1_556 S
