data_kag+N123+E161
_audit_creation_date              2025-01-21
_audit_creation_method            'Materials Studio'
_symmetry_space_group_name_H-M    'P1'
_symmetry_Int_Tables_number       1
_symmetry_cell_setting            triclinic
loop_
_symmetry_equiv_pos_as_xyz
  x,y,z
_cell_length_a                    52.3619
_cell_length_b                    50.4334
_cell_length_c                    23.5234
_cell_angle_alpha                 93.5400
_cell_angle_beta                  89.4110
_cell_angle_gamma                 124.7223
loop_
_atom_site_label
_atom_site_type_symbol
_atom_site_fract_x
_atom_site_fract_y
_atom_site_fract_z
_atom_site_U_iso_or_equiv
_atom_site_adp_type
_atom_site_occupancy
Ce0    Ce    0.53511   0.51345   0.00484   0.00000  Uiso   1.00
Ce1    Ce    0.46980   0.48757   1.00011   0.00000  Uiso   1.00
C2     C     0.47742   0.49193   0.11360   0.00000  Uiso   1.00
C3     C     0.59495   0.53302   0.00738   0.00000  Uiso   1.00
C4     C     0.51815   0.56586   1.00621   0.00000  Uiso   1.00
C5     C     0.52734   0.50890   0.89123   0.00000  Uiso   1.00
C6     C     0.40952   0.46627   0.99816   0.00000  Uiso   1.00
C7     C     0.48648   0.43518  -0.00208   0.00000  Uiso   1.00
O8     O     0.45227   0.48178   0.09046   0.00000  Uiso   1.00
O9     O     0.50174   0.50125   0.07630   0.00000  Uiso   1.00
O10    O     0.57992   0.52965   0.05254   0.00000  Uiso   1.00
O11    O     0.58012   0.52820   0.96063   0.00000  Uiso   1.00
O12    O     0.54103   0.56259   1.00659   0.00000  Uiso   1.00
O13    O     0.48917   0.54164   1.00485   0.00000  Uiso   1.00
O14    O     0.55251   0.51909   0.91438   0.00000  Uiso   1.00
O15    O     0.50310   0.49972   0.92859   0.00000  Uiso   1.00
O16    O     0.42470   0.47019   0.95294   0.00000  Uiso   1.00
O17    O     0.42483   0.47211   0.04480   0.00000  Uiso   1.00
O18    O     0.46366   0.43847  -0.00204   0.00000  Uiso   1.00
O19    O     0.51545   0.45937  -0.00022   0.00000  Uiso   1.00
Ce20   Ce    0.02374   0.49081   0.00092   0.00000  Uiso   1.00
Ce21   Ce    0.98067   0.50947   0.00818   0.00000  Uiso   1.00
C22    C     0.98217   0.50329   0.89392   0.00000  Uiso   1.00
C23    C     0.06512   0.47487   0.99859   0.00000  Uiso   1.00
C24    C     0.95087   0.43282   0.00591   0.00000  Uiso   1.00
C25    C     0.02182   0.49646   0.11508   0.00000  Uiso   1.00
C26    C     0.93873   0.52441   0.01105   0.00000  Uiso   1.00
C27    C     0.05356   0.56762   1.00332   0.00000  Uiso   1.00
O28    O     0.96619   0.51097   0.91805   0.00000  Uiso   1.00
O29    O     0.99933   0.49775   0.93065   0.00000  Uiso   1.00
O30    O     0.05290   0.47665   0.95349   0.00000  Uiso   1.00
O31    O     0.05571   0.48056   0.04525   0.00000  Uiso   1.00
O32    O     0.97864   0.43942   0.00210   0.00000  Uiso   1.00
O33    O     0.94486   0.45447   0.00855   0.00000  Uiso   1.00
O34    O     0.03773   0.48868   0.09096   0.00000  Uiso   1.00
O35    O     0.00496   0.50239   0.07841   0.00000  Uiso   1.00
O36    O     0.95165   0.52372   0.05618   0.00000  Uiso   1.00
O37    O     0.94780   0.51845   0.96426   0.00000  Uiso   1.00
O38    O     0.02569   0.56087   1.00524   0.00000  Uiso   1.00
O39    O     0.05974   0.54609   0.00222   0.00000  Uiso   1.00
Ce40   Ce    0.50824   0.97574   0.99890   0.00000  Uiso   1.00
Ce41   Ce    0.49615   0.02510   0.00070   0.00000  Uiso   1.00
C42    C     0.49581   0.01918   0.11349   0.00000  Uiso   1.00
C43    C     0.51835   0.92877   0.99518   0.00000  Uiso   1.00
C44    C     0.56853   0.05003   1.00701   0.00000  Uiso   1.00
C45    C     0.50790   0.98103   0.88592   0.00000  Uiso   1.00
C46    C     0.48596   0.07204   0.00385   0.00000  Uiso   1.00
C47    C     0.43600   0.95111  -0.00609   0.00000  Uiso   1.00
O48    O     0.49160   0.03821   0.09284   0.00000  Uiso   1.00
O49    O     0.50090   0.00097   0.07362   0.00000  Uiso   1.00
O50    O     0.51477   0.94061   0.04167   0.00000  Uiso   1.00
O51    O     0.51717   0.94113   0.95015   0.00000  Uiso   1.00
O52    O     0.55953   0.02009   1.00299   0.00000  Uiso   1.00
O53    O     0.54959   0.05883   0.00807   0.00000  Uiso   1.00
O54    O     0.51207   0.96202   0.90673   0.00000  Uiso   1.00
O55    O     0.50322   0.99963   0.92579   0.00000  Uiso   1.00
O56    O     0.48989   0.06033   0.95759   0.00000  Uiso   1.00
O57    O     0.48689   0.05959   0.04898   0.00000  Uiso   1.00
O58    O     0.44502   0.98100  -0.00426   0.00000  Uiso   1.00
O59    O     0.45472   0.94205   0.99352   0.00000  Uiso   1.00
H60    H     0.57194   0.53902   0.81402   0.00000  Uiso   1.00
C61    C     0.48173   0.49383   0.17575   0.00000  Uiso   1.00
C62    C     0.45599   0.47658   0.21040   0.00000  Uiso   1.00
C63    C     0.46006   0.47811   0.26960   0.00000  Uiso   1.00
C64    C     0.49033   0.49742   0.29438   0.00000  Uiso   1.00
C65    C     0.51629   0.51485   0.25971   0.00000  Uiso   1.00
C66    C     0.51179   0.51266   0.20052   0.00000  Uiso   1.00
C67    C     0.43219   0.45917   0.30614   0.00000  Uiso   1.00
C68    C     0.54862   0.53595   0.28587   0.00000  Uiso   1.00
C69    C     0.50038   0.47837   0.37752   0.00000  Uiso   1.00
C70    C     0.50386   0.47879   0.43670   0.00000  Uiso   1.00
C71    C     0.50136   0.50068   0.47237   0.00000  Uiso   1.00
C72    C     0.49592   0.52202   0.44846   0.00000  Uiso   1.00
C73    C     0.49284   0.52087   0.38899   0.00000  Uiso   1.00
C74    C     0.50956   0.45782   0.46096   0.00000  Uiso   1.00
C75    C     0.51252   0.45837   0.52000   0.00000  Uiso   1.00
C76    C     0.50992   0.47998   0.55600   0.00000  Uiso   1.00
C77    C     0.50433   0.50122   0.53210   0.00000  Uiso   1.00
C78    C     0.50166   0.52298   0.56780   0.00000  Uiso   1.00
C79    C     0.49620   0.54415   0.54350   0.00000  Uiso   1.00
C80    C     0.49349   0.54377   0.48442   0.00000  Uiso   1.00
C81    C     0.51297   0.48108   0.61546   0.00000  Uiso   1.00
C82    C     0.50477   0.52311   0.62703   0.00000  Uiso   1.00
C83    C     0.51470   0.50390   0.71022   0.00000  Uiso   1.00
C84    C     0.45590   0.46520   0.71990   0.00000  Uiso   1.00
C85    C     0.49299   0.48829   0.80392   0.00000  Uiso   1.00
C86    C     0.57294   0.54308   0.69981   0.00000  Uiso   1.00
C87    C     0.54878   0.52426   0.79461   0.00000  Uiso   1.00
C88    C     0.54489   0.52324   0.73550   0.00000  Uiso   1.00
C89    C     0.48859   0.48626   0.74471   0.00000  Uiso   1.00
C90    C     0.52300   0.50694   0.82900   0.00000  Uiso   1.00
H91    H     0.57059   0.56004   0.67629   0.00000  Uiso   1.00
N92    N     0.49474   0.49903   0.35504   0.00000  Uiso   1.00
N93    N     0.51069   0.50265   0.64950   0.00000  Uiso   1.00
H94    H     0.57510   0.52696   0.66890   0.00000  Uiso   1.00
H95    H     0.43277   0.46158   0.19124   0.00000  Uiso   1.00
H96    H     0.53176   0.52592   0.17380   0.00000  Uiso   1.00
H97    H     0.41023   0.44467   0.28012   0.00000  Uiso   1.00
H98    H     0.43434   0.44237   0.33064   0.00000  Uiso   1.00
H99    H     0.43062   0.47597   0.33631   0.00000  Uiso   1.00
H100   H     0.55406   0.52105   0.30870   0.00000  Uiso   1.00
H101   H     0.56641   0.54859   0.25322   0.00000  Uiso   1.00
H102   H     0.55029   0.55452   0.31664   0.00000  Uiso   1.00
O103   O     0.48763   0.54155   0.36486   0.00000  Uiso   1.00
O104   O     0.50237   0.45696   0.34208   0.00000  Uiso   1.00
H105   H     0.51177   0.44092   0.43443   0.00000  Uiso   1.00
H106   H     0.48943   0.56052   0.46710   0.00000  Uiso   1.00
H107   H     0.51688   0.44184   0.53726   0.00000  Uiso   1.00
H108   H     0.44276   0.47542   0.73444   0.00000  Uiso   1.00
H109   H     0.45513   0.46320   0.67264   0.00000  Uiso   1.00
H110   H     0.47289   0.47485   0.83026   0.00000  Uiso   1.00
H111   H     0.49414   0.56115   0.57003   0.00000  Uiso   1.00
H112   H     0.59472   0.55762   0.72640   0.00000  Uiso   1.00
O113   O     0.50192   0.54388   0.66260   0.00000  Uiso   1.00
O114   O     0.51828   0.46047   0.63959   0.00000  Uiso   1.00
H115   H     0.44416   0.44037   0.73451   0.00000  Uiso   1.00
H116   H     0.05118   0.48459   0.19332   0.00000  Uiso   1.00
C117   C    -0.01617   0.50093   0.83124   0.00000  Uiso   1.00
C118   C     0.96765   0.50858   0.79622   0.00000  Uiso   1.00
C119   C     0.97068   0.50819   0.73686   0.00000  Uiso   1.00
C120   C     0.98999   0.49974   0.71220   0.00000  Uiso   1.00
C121   C     0.00578   0.49136   0.74698   0.00000  Uiso   1.00
C122   C     0.00251   0.49195   0.80623   0.00000  Uiso   1.00
C123   C     0.95360   0.51699   0.69991   0.00000  Uiso   1.00
C124   C     0.02620   0.48204   0.72084   0.00000  Uiso   1.00
C125   C     0.01777   0.52824   0.62950   0.00000  Uiso   1.00
C126   C     0.02206   0.52953   0.57043   0.00000  Uiso   1.00
C127   C     1.00177   0.50170   0.53456   0.00000  Uiso   1.00
C128   C     0.97768   0.47318   0.55813   0.00000  Uiso   1.00
C129   C     0.97426   0.47308   0.61738   0.00000  Uiso   1.00
C130   C     0.04601   0.55783   0.54645   0.00000  Uiso   1.00
C131   C     0.04979   0.55852   0.48755   0.00000  Uiso   1.00
C132   C     0.02979   0.53083   0.45139   0.00000  Uiso   1.00
C133   C     1.00567   0.50234   0.47503   0.00000  Uiso   1.00
C134   C     0.98545   0.47444   0.43926   0.00000  Uiso   1.00
C135   C     0.96147   0.44616   0.46320   0.00000  Uiso   1.00
C136   C     0.95765   0.44552   0.52202   0.00000  Uiso   1.00
C137   C     0.03327   0.53079   0.39207   0.00000  Uiso   1.00
C138   C     0.98984   0.47556   0.38031   0.00000  Uiso   1.00
C139   C     0.01715   0.50365   0.29724   0.00000  Uiso   1.00
C140   C     0.98061   0.52145   0.28708   0.00000  Uiso   1.00
C141   C     1.00197   0.50827   0.20294   0.00000  Uiso   1.00
C142   C     0.05465   0.48766   0.30861   0.00000  Uiso   1.00
C143   C     0.03706   0.49194   0.21255   0.00000  Uiso   1.00
C144   C     0.03581   0.49444   0.27210   0.00000  Uiso   1.00
C145   C     1.00038   0.51090   0.26236   0.00000  Uiso   1.00
C146   C     0.02028   0.49890   0.17772   0.00000  Uiso   1.00
H147   H     0.03961   0.46973   0.33977   0.00000  Uiso   1.00
N148   N     0.99411   0.50036   0.65162   0.00000  Uiso   1.00
N149   N     1.01350   0.50336   0.35797   0.00000  Uiso   1.00
H150   H     0.07328   0.51050   0.33196   0.00000  Uiso   1.00
H151   H     0.95287   0.51516   0.81515   0.00000  Uiso   1.00
H152   H     0.01473   0.48561   0.83293   0.00000  Uiso   1.00
H153   H     0.94120   0.52525   0.72568   0.00000  Uiso   1.00
H154   H     0.97027   0.53688   0.67316   0.00000  Uiso   1.00
H155   H     0.93631   0.49562   0.67173   0.00000  Uiso   1.00
H156   H     0.04412   0.50165   0.69501   0.00000  Uiso   1.00
H157   H     0.03834   0.47782   0.75372   0.00000  Uiso   1.00
H158   H     0.01185   0.45954   0.69281   0.00000  Uiso   1.00
O159   O     0.95093   0.44553   0.64116   0.00000  Uiso   1.00
O160   O     0.03739   0.55503   0.66529   0.00000  Uiso   1.00
H161   H     0.06193   0.57952   0.57311   0.00000  Uiso   1.00
H162   H     0.93902   0.42330   0.53910   0.00000  Uiso   1.00
H163   H     0.06845   0.58077   0.47052   0.00000  Uiso   1.00
H164   H     0.95593   0.50344   0.27347   0.00000  Uiso   1.00
H165   H     0.98193   0.52409   0.33431   0.00000  Uiso   1.00
H166   H     0.98882   0.51360   0.17641   0.00000  Uiso   1.00
H167   H     0.94561   0.42439   0.43659   0.00000  Uiso   1.00
H168   H     0.06566   0.47780   0.28263   0.00000  Uiso   1.00
O169   O     0.97026   0.44859   0.34482   0.00000  Uiso   1.00
O170   O     0.05645   0.55835   0.36813   0.00000  Uiso   1.00
H171   H     0.98856   0.54529   0.27155   0.00000  Uiso   1.00
H172   H     0.50126   0.02257   0.83183   0.00000  Uiso   1.00
C173   C     0.49565   0.01581   0.17544   0.00000  Uiso   1.00
C174   C     0.49849   0.99213   0.19650   0.00000  Uiso   1.00
C175   C     0.49879   0.98906   0.25538   0.00000  Uiso   1.00
C176   C     0.49653   1.01022   0.29378   0.00000  Uiso   1.00
C177   C     0.49327   0.03377   0.27281   0.00000  Uiso   1.00
C178   C     0.49275   0.03629   0.21384   0.00000  Uiso   1.00
C179   C     0.50141   0.96324   0.27723   0.00000  Uiso   1.00
C180   C     0.49041   0.05620   0.31318   0.00000  Uiso   1.00
C181   C     0.52666   0.02572   0.38220   0.00000  Uiso   1.00
C182   C     0.52905   0.02310   0.44076   0.00000  Uiso   1.00
C183   C     0.50181   1.00222   0.47020   0.00000  Uiso   1.00
C184   C     0.47273   0.98457   0.44095   0.00000  Uiso   1.00
C185   C     0.47147   0.98816   0.38249   0.00000  Uiso   1.00
C186   C     0.55794   0.04053   0.47033   0.00000  Uiso   1.00
C187   C     0.55975   0.03737   0.52852   0.00000  Uiso   1.00
C188   C     0.53269   0.01670   0.55837   0.00000  Uiso   1.00
C189   C     0.50365   0.99890   0.52899   0.00000  Uiso   1.00
C190   C     0.47643   0.97769   0.55821   0.00000  Uiso   1.00
C191   C     0.44760   0.96003   0.52852   0.00000  Uiso   1.00
C192   C     0.44573   0.96357   0.47061   0.00000  Uiso   1.00
C193   C     0.53382   0.01338   0.61704   0.00000  Uiso   1.00
C194   C     0.47875   0.97485   0.61665   0.00000  Uiso   1.00
C195   C     0.50847   0.99060   0.70541   0.00000  Uiso   1.00
C196   C     0.51674   0.94558   0.68764   0.00000  Uiso   1.00
C197   C     0.51175   0.96425   0.78551   0.00000  Uiso   1.00
C198   C     0.50091   0.03577   0.72194   0.00000  Uiso   1.00
C199   C     0.50431   0.00720   0.80256   0.00000  Uiso   1.00
C200   C     0.50467   0.01070   0.74376   0.00000  Uiso   1.00
C201   C     0.51226   0.96739   0.72657   0.00000  Uiso   1.00
C202   C     0.50787   0.98409   0.82381   0.00000  Uiso   1.00
H203   H     0.47971   0.02388   0.69399   0.00000  Uiso   1.00
N204   N     0.49822   1.00817   0.35429   0.00000  Uiso   1.00
N205   N     0.50705   0.99294   0.64494   0.00000  Uiso   1.00
H206   H     0.52146   0.05277   0.69710   0.00000  Uiso   1.00
H207   H     0.50041   0.97596   0.16712   0.00000  Uiso   1.00
H208   H     0.49026   0.05442   0.19782   0.00000  Uiso   1.00
H209   H     0.50423   0.94945   0.24212   0.00000  Uiso   1.00
H210   H     0.52181   0.97431   0.30707   0.00000  Uiso   1.00
H211   H     0.48006   0.94604   0.30009   0.00000  Uiso   1.00
H212   H     0.51077   0.06960   0.34332   0.00000  Uiso   1.00
H213   H     0.48933   0.07415   0.29026   0.00000  Uiso   1.00
H214   H     0.46889   0.04199   0.33761   0.00000  Uiso   1.00
O215   O     0.44334   0.97125   0.35336   0.00000  Uiso   1.00
O216   O     0.55300   0.04576   0.35269   0.00000  Uiso   1.00
H217   H     0.57923   0.05661   0.44857   0.00000  Uiso   1.00
H218   H     0.42309   0.94968   0.44915   0.00000  Uiso   1.00
H219   H     0.58241   0.05112   0.54994   0.00000  Uiso   1.00
H220   H     0.49699   0.92002   0.69134   0.00000  Uiso   1.00
H221   H     0.51825   0.95097   0.64227   0.00000  Uiso   1.00
H222   H     0.51439   0.94621   0.80145   0.00000  Uiso   1.00
H223   H     0.42638   0.94347   0.55002   0.00000  Uiso   1.00
H224   H     0.49880   0.05003   0.75721   0.00000  Uiso   1.00
O225   O     0.45248   0.95401   0.64567   0.00000  Uiso   1.00
O226   O     0.56184   0.03077   0.64656   0.00000  Uiso   1.00
H227   H     0.53866   0.94852   0.70005   0.00000  Uiso   1.00
H228   H     0.08007   0.45126   0.90806   0.00000  Uiso   1.00
C229   C     0.37739   0.45737  -0.00349   0.00000  Uiso   1.00
C230   C     0.36388   0.46002   0.04641   0.00000  Uiso   1.00
C231   C     0.33487   0.45548   0.04413   0.00000  Uiso   1.00
C232   C     0.31928   0.44832  -0.00913   0.00000  Uiso   1.00
C233   C     0.33188   0.44364   0.94109   0.00000  Uiso   1.00
C234   C     0.36089   0.44831   0.94433   0.00000  Uiso   1.00
C235   C     0.32101   0.45887   0.09827   0.00000  Uiso   1.00
C236   C     0.31458   0.43403   0.88460   0.00000  Uiso   1.00
C237   C     0.29543   0.47635   0.97204   0.00000  Uiso   1.00
C238   C     0.26955   0.47791   0.96978   0.00000  Uiso   1.00
C239   C     0.24023   0.45067  -0.01673   0.00000  Uiso   1.00
C240   C     0.23708   0.42210  -0.00326   0.00000  Uiso   1.00
C241   C     0.26358   0.42153  -0.00256   0.00000  Uiso   1.00
C242   C     0.27237   0.50609   0.95532   0.00000  Uiso   1.00
C243   C     0.24648   0.50746   0.95567   0.00000  Uiso   1.00
C244   C     0.21722   0.48065   0.97021   0.00000  Uiso   1.00
C245   C     0.21404   0.45209  -0.01628   0.00000  Uiso   1.00
C246   C     0.18480   0.42505  -0.00178   0.00000  Uiso   1.00
C247   C     0.18191   0.39662   0.01119   0.00000  Uiso   1.00
C248   C     0.20771   0.39509   0.01001   0.00000  Uiso   1.00
C249   C     0.19100   0.48170   0.97199   0.00000  Uiso   1.00
C250   C     0.15924   0.42731  -0.00033   0.00000  Uiso   1.00
C251   C     0.13675   0.45784  -0.00883   0.00000  Uiso   1.00
C252   C     0.15042   0.47667   0.09664   0.00000  Uiso   1.00
C253   C     0.10703   0.47357   0.04564   0.00000  Uiso   1.00
C254   C     0.12299   0.43838   0.88689   0.00000  Uiso   1.00
C255   C     0.09424   0.45611   0.94569   0.00000  Uiso   1.00
C256   C     0.11787   0.45094   0.94245   0.00000  Uiso   1.00
C257   C     0.13103   0.46892   0.04327   0.00000  Uiso   1.00
C258   C     0.08886   0.46771  -0.00314   0.00000  Uiso   1.00
H259   H     0.11952   0.41484   0.89246   0.00000  Uiso   1.00
N260   N     0.29207   0.44863  -0.01342   0.00000  Uiso   1.00
N261   N     0.16280   0.45537  -0.01311   0.00000  Uiso   1.00
H262   H     0.14695   0.45590   0.87263   0.00000  Uiso   1.00
H263   H     0.37640   0.46660   0.08691   0.00000  Uiso   1.00
H264   H     0.37097   0.44555   0.90587   0.00000  Uiso   1.00
H265   H     0.33735   0.46716   0.13545   0.00000  Uiso   1.00
H266   H     0.31519   0.47670   0.09435   0.00000  Uiso   1.00
H267   H     0.29955   0.43509   0.10694   0.00000  Uiso   1.00
H268   H     0.30975   0.45200   0.87445   0.00000  Uiso   1.00
H269   H     0.32806   0.43244   0.84937   0.00000  Uiso   1.00
H270   H     0.29218   0.41000   0.88676   0.00000  Uiso   1.00
O271   O     0.26095   0.39380   0.00950   0.00000  Uiso   1.00
O272   O     0.32429   0.50286   0.96002   0.00000  Uiso   1.00
H273   H     0.29457   0.52728   0.94404   0.00000  Uiso   1.00
H274   H     0.20457   0.37276   0.02019   0.00000  Uiso   1.00
H275   H     0.24955   0.52967   0.94479   0.00000  Uiso   1.00
H276   H     0.13515   0.46181   0.13099   0.00000  Uiso   1.00
H277   H     0.16841   0.47173   0.09081   0.00000  Uiso   1.00
H278   H     0.10311   0.48260   0.08543   0.00000  Uiso   1.00
H279   H     0.15975   0.37545   0.02244   0.00000  Uiso   1.00
H280   H     0.10644   0.43461   0.85286   0.00000  Uiso   1.00
O281   O     0.13073   0.40153   0.01506   0.00000  Uiso   1.00
O282   O     0.19378   0.50949   0.95971   0.00000  Uiso   1.00
H283   H     0.16237   0.50267   0.11051   0.00000  Uiso   1.00
H284   H     0.61392   0.05408   0.94306   0.00000  Uiso   1.00
C285   C     0.92436   0.39886   0.00750   0.00000  Uiso   1.00
C286   C     0.90159   0.39026   0.04813   0.00000  Uiso   1.00
C287   C     0.87498   0.35853   0.04798   0.00000  Uiso   1.00
C288   C     0.87054   0.33533   0.00490   0.00000  Uiso   1.00
C289   C     0.89367   0.34380   0.96427   0.00000  Uiso   1.00
C290   C     0.92073   0.37544   0.96668   0.00000  Uiso   1.00
C291   C     0.85139   0.34963   0.09347   0.00000  Uiso   1.00
C292   C     0.88916   0.31962   0.91742   0.00000  Uiso   1.00
C293   C     0.81670   0.30039  -0.02725   0.00000  Uiso   1.00
C294   C     0.78736   0.27088  -0.02845   0.00000  Uiso   1.00
C295   C     0.78390   0.24484  -0.00164   0.00000  Uiso   1.00
C296   C     0.80984   0.24854   0.02502   0.00000  Uiso   1.00
C297   C     0.83875   0.27863   0.02536   0.00000  Uiso   1.00
C298   C     0.76134   0.26704  -0.05469   0.00000  Uiso   1.00
C299   C     0.73215   0.23779  -0.05370   0.00000  Uiso   1.00
C300   C     0.72836   0.21174  -0.02661   0.00000  Uiso   1.00
C301   C     0.75433   0.21522  -0.00066   0.00000  Uiso   1.00
C302   C     0.75066   0.18936   0.02719   0.00000  Uiso   1.00
C303   C     0.77678   0.19314   0.05287   0.00000  Uiso   1.00
C304   C     0.80606   0.22237   0.05164   0.00000  Uiso   1.00
C305   C     0.69909   0.18239  -0.02393   0.00000  Uiso   1.00
C306   C     0.72079   0.16054   0.02941   0.00000  Uiso   1.00
C307   C     0.66495   0.12886   0.00974   0.00000  Uiso   1.00
C308   C     0.65549   0.15718   0.09267   0.00000  Uiso   1.00
C309   C     0.61339   0.10294   0.04873   0.00000  Uiso   1.00
C310   C     0.67497   0.10094   0.92815   0.00000  Uiso   1.00
C311   C     0.62263   0.07488   0.97299   0.00000  Uiso   1.00
C312   C     0.65388   0.10141   0.97163   0.00000  Uiso   1.00
C313   C     0.64469   0.12911   0.04963   0.00000  Uiso   1.00
C314   C     0.60212   0.07591   1.01036   0.00000  Uiso   1.00
H315   H     0.69463   0.10268   0.94994   0.00000  Uiso   1.00
N316   N     0.84151   0.30390   0.00026   0.00000  Uiso   1.00
N317   N     0.69575   0.15766   0.00427   0.00000  Uiso   1.00
H318   H     0.68431   0.12168   0.90102   0.00000  Uiso   1.00
H319   H     0.90471   0.40840   0.08009   0.00000  Uiso   1.00
H320   H     0.93843   0.38222   0.93536   0.00000  Uiso   1.00
H321   H     0.85852   0.37053   0.12417   0.00000  Uiso   1.00
H322   H     0.82857   0.34122   0.07385   0.00000  Uiso   1.00
H323   H     0.84873   0.33003   0.11774   0.00000  Uiso   1.00
H324   H     0.86763   0.31076   0.89208   0.00000  Uiso   1.00
H325   H     0.90891   0.33047   0.88797   0.00000  Uiso   1.00
H326   H     0.88724   0.29883   0.93592   0.00000  Uiso   1.00
O327   O     0.86416   0.28295   0.05217   0.00000  Uiso   1.00
O328   O     0.82038   0.32614  -0.05254   0.00000  Uiso   1.00
H329   H     0.76335   0.28670  -0.07552   0.00000  Uiso   1.00
H330   H     0.82565   0.22451   0.07216   0.00000  Uiso   1.00
H331   H     0.71252   0.23577  -0.07371   0.00000  Uiso   1.00
H332   H     0.64963   0.14833   0.13616   0.00000  Uiso   1.00
H333   H     0.68097   0.17555   0.09264   0.00000  Uiso   1.00
H334   H     0.59770   0.10370   0.07817   0.00000  Uiso   1.00
H335   H     0.77465   0.17362   0.07437   0.00000  Uiso   1.00
H336   H     0.66251   0.07836   0.89990   0.00000  Uiso   1.00
O337   O     0.71657   0.13552   0.05817   0.00000  Uiso   1.00
O338   O     0.67349   0.17873   0.95144   0.00000  Uiso   1.00
H339   H     0.64368   0.16910   0.08351   0.00000  Uiso   1.00
H340   H     0.60800   0.48898   0.00234   0.00000  Uiso   1.00
C341   C     0.91459   0.53067   0.01251   0.00000  Uiso   1.00
C342   C     0.92119   0.56013   0.03621   0.00000  Uiso   1.00
C343   C     0.89847   0.56668   0.03569   0.00000  Uiso   1.00
C344   C     0.86826   0.54267   0.01331   0.00000  Uiso   1.00
C345   C     0.86144   0.51261   0.99062   0.00000  Uiso   1.00
C346   C     0.88485   0.50710   0.98960   0.00000  Uiso   1.00
C347   C     0.90678   0.59941   0.05778   0.00000  Uiso   1.00
C348   C     0.82919   0.48631   0.96827   0.00000  Uiso   1.00
C349   C     0.83566   0.55523   0.96588   0.00000  Uiso   1.00
C350   C     0.81056   0.55828   0.96552   0.00000  Uiso   1.00
C351   C     0.79481   0.55485   0.01635   0.00000  Uiso   1.00
C352   C     0.80457   0.54893   0.06670   0.00000  Uiso   1.00
C353   C     0.82927   0.54532   0.06470   0.00000  Uiso   1.00
C354   C     0.80067   0.56435   0.91565   0.00000  Uiso   1.00
C355   C     0.77498   0.56613   0.91586   0.00000  Uiso   1.00
C356   C     0.75850   0.56169   0.96593   0.00000  Uiso   1.00
C357   C     0.76890   0.55677   0.01665   0.00000  Uiso   1.00
C358   C     0.75317   0.55331   0.06753   0.00000  Uiso   1.00
C359   C     0.76400   0.54891   0.11809   0.00000  Uiso   1.00
C360   C     0.78923   0.54640   0.11754   0.00000  Uiso   1.00
C361   C     0.73132   0.56110   0.96644   0.00000  Uiso   1.00
C362   C     0.72640   0.55338   0.06610   0.00000  Uiso   1.00
C363   C     0.68521   0.55056   0.01365   0.00000  Uiso   1.00
C364   C     0.71043   0.61144   1.02285   0.00000  Uiso   1.00
C365   C     0.65280   0.57105   1.01451   0.00000  Uiso   1.00
C366   C     0.66036   0.49006   0.00420   0.00000  Uiso   1.00
C367   C     0.62882   0.51341   0.00609   0.00000  Uiso   1.00
C368   C     0.65812   0.51861   0.00818   0.00000  Uiso   1.00
C369   C     0.68245   0.57694   0.01689   0.00000  Uiso   1.00
C370   C     0.62606   0.53945   0.00903   0.00000  Uiso   1.00
H371   H     0.67141   0.48963   0.04383   0.00000  Uiso   1.00
N372   N     0.84418   0.54835   0.01481   0.00000  Uiso   1.00
N373   N     0.71530   0.55581   0.01563   0.00000  Uiso   1.00
H374   H     0.67456   0.49180   0.96738   0.00000  Uiso   1.00
H375   H     0.94429   0.57823   0.05387   0.00000  Uiso   1.00
H376   H     0.87978   0.48413   0.97205   0.00000  Uiso   1.00
H377   H     0.93175   0.61588   0.07092   0.00000  Uiso   1.00
H378   H     0.90217   0.61066   0.02387   0.00000  Uiso   1.00
H379   H     0.89279   0.59705   0.09527   0.00000  Uiso   1.00
H380   H     0.82299   0.49432   0.93115   0.00000  Uiso   1.00
H381   H     0.82734   0.46383   0.95428   0.00000  Uiso   1.00
H382   H     0.81216   0.48051   0.00215   0.00000  Uiso   1.00
O383   O     0.83801   0.53792   0.11277   0.00000  Uiso   1.00
O384   O     0.85121   0.55836   0.91665   0.00000  Uiso   1.00
H385   H     0.81249   0.56735   0.87611   0.00000  Uiso   1.00
H386   H     0.79654   0.54230   0.15700   0.00000  Uiso   1.00
H387   H     0.76791   0.57062   0.87651   0.00000  Uiso   1.00
H388   H     0.70868   0.62383   0.06184   0.00000  Uiso   1.00
H389   H     0.73255   0.61341   1.02623   0.00000  Uiso   1.00
H390   H     0.65055   0.59113   1.01709   0.00000  Uiso   1.00
H391   H     0.75270   0.54683   0.15802   0.00000  Uiso   1.00
H392   H     0.63713   0.46676  -0.00166   0.00000  Uiso   1.00
O393   O     0.71063   0.54980   0.11516   0.00000  Uiso   1.00
O394   O     0.72024   0.56484   0.91709   0.00000  Uiso   1.00
H395   H     0.71139   0.62415   0.98514   0.00000  Uiso   1.00
H396   H     0.09128   0.60712   0.09130   0.00000  Uiso   1.00
C397   C     0.40256   0.92569  -0.00765   0.00000  Uiso   1.00
C398   C     0.38706   0.91049   0.94016   0.00000  Uiso   1.00
C399   C     0.35601   0.88355   0.93815   0.00000  Uiso   1.00
C400   C     0.34030   0.87164   0.98942   0.00000  Uiso   1.00
C401   C     0.35570   0.88769   0.04222   0.00000  Uiso   1.00
C402   C     0.38677   0.91467   0.04315   0.00000  Uiso   1.00
C403   C     0.34007   0.86715   0.88143   0.00000  Uiso   1.00
C404   C     0.33958   0.87547   0.09748   0.00000  Uiso   1.00
C405   C     0.30741   0.81312   0.98257   0.00000  Uiso   1.00
C406   C     0.27818   0.78342   0.98220   0.00000  Uiso   1.00
C407   C     0.25138   0.78334   0.98856   0.00000  Uiso   1.00
C408   C     0.25411   0.81285  -0.00618   0.00000  Uiso   1.00
C409   C     0.28385   0.84203  -0.00744   0.00000  Uiso   1.00
C410   C     0.27521   0.75388   0.97616   0.00000  Uiso   1.00
C411   C     0.24601   0.72462   0.97704   0.00000  Uiso   1.00
C412   C     0.21913   0.72424   0.98403   0.00000  Uiso   1.00
C413   C     0.22178   0.75368   0.98983   0.00000  Uiso   1.00
C414   C     0.19496   0.75352  -0.00277   0.00000  Uiso   1.00
C415   C     0.19795   0.78310   0.00278   0.00000  Uiso   1.00
C416   C     0.22717   0.81241   0.00068   0.00000  Uiso   1.00
C417   C     0.18957   0.69508   0.98559   0.00000  Uiso   1.00
C418   C     0.16584   0.72368  -0.00092   0.00000  Uiso   1.00
C419   C     0.13393   0.66480   0.99669   0.00000  Uiso   1.00
C420   C     0.12358   0.66238   0.88994   0.00000  Uiso   1.00
C421   C     0.08830   0.61651   0.95017   0.00000  Uiso   1.00
C422   C     0.14359   0.66854   0.10297   0.00000  Uiso   1.00
C423   C     0.09796   0.61866   0.05131   0.00000  Uiso   1.00
C424   C     0.12470   0.65032   0.04930   0.00000  Uiso   1.00
C425   C     0.11523   0.64794   0.94698   0.00000  Uiso   1.00
C426   C     0.07993   0.60164   1.00184   0.00000  Uiso   1.00
H427   H     0.14451   0.69103   0.11065   0.00000  Uiso   1.00
N428   N     0.30977   0.84166   0.98801   0.00000  Uiso   1.00
N429   N     0.16371   0.69527   0.99331   0.00000  Uiso   1.00
H430   H     0.16762   0.67508   0.09862   0.00000  Uiso   1.00
H431   H     0.39951   0.91922   0.90109   0.00000  Uiso   1.00
H432   H     0.39902   0.92651   0.08349   0.00000  Uiso   1.00
H433   H     0.35527   0.88005   0.84553   0.00000  Uiso   1.00
H434   H     0.33391   0.84210   0.87808   0.00000  Uiso   1.00
H435   H     0.31861   0.86646   0.87711   0.00000  Uiso   1.00
H436   H     0.33283   0.85045   0.10138   0.00000  Uiso   1.00
H437   H     0.35482   0.89079   0.13484   0.00000  Uiso   1.00
H438   H     0.31842   0.87554   0.09878   0.00000  Uiso   1.00
O439   O     0.28692   0.87099  -0.00377   0.00000  Uiso   1.00
O440   O     0.33379   0.81354   0.97766   0.00000  Uiso   1.00
H441   H     0.29543   0.75325   0.97083   0.00000  Uiso   1.00
H442   H     0.22857   0.83472   0.00492   0.00000  Uiso   1.00
H443   H     0.24461   0.70232   0.97251   0.00000  Uiso   1.00
H444   H     0.10446   0.66356   0.87354   0.00000  Uiso   1.00
H445   H     0.14521   0.68717   0.89194   0.00000  Uiso   1.00
H446   H     0.07426   0.60326   0.91194   0.00000  Uiso   1.00
H447   H     0.17775   0.78369   0.00885   0.00000  Uiso   1.00
H448   H     0.13345   0.65403   0.14067   0.00000  Uiso   1.00
O449   O     0.13947   0.72302   0.00678   0.00000  Uiso   1.00
O450   O     0.18665   0.66619   0.98007   0.00000  Uiso   1.00
H451   H     0.12690   0.64700   0.85935   0.00000  Uiso   1.00
H452   H     0.47998   0.58370   1.03807   0.00000  Uiso   1.00
C453   C     0.52315   0.90265   0.99377   0.00000  Uiso   1.00
C454   C     0.54262   0.90168   0.95374   0.00000  Uiso   1.00
C455   C     0.54785   0.87726   0.95304   0.00000  Uiso   1.00
C456   C     0.53228   0.85264   0.99165   0.00000  Uiso   1.00
C457   C     0.51215   0.85328   1.03139   0.00000  Uiso   1.00
C458   C     0.50822   0.87860   1.03269   0.00000  Uiso   1.00
C459   C     0.57032   0.87789   0.91173   0.00000  Uiso   1.00
C460   C     0.49428   0.82667   1.07143   0.00000  Uiso   1.00
C461   C     0.55376   0.82533   0.03030   0.00000  Uiso   1.00
C462   C     0.55548   0.79852   0.03117   0.00000  Uiso   1.00
C463   C     0.53976   0.77345   0.98797   0.00000  Uiso   1.00
C464   C     0.52269   0.77551   0.94469   0.00000  Uiso   1.00
C465   C     0.52060   0.80210   0.94693   0.00000  Uiso   1.00
C466   C     0.57205   0.79595   0.07462   0.00000  Uiso   1.00
C467   C     0.57237   0.76847   0.07585   0.00000  Uiso   1.00
C468   C     0.55642   0.74314   0.03334   0.00000  Uiso   1.00
C469   C     0.54057   0.74593   0.98862   0.00000  Uiso   1.00
C470   C     0.52500   0.72097   0.94517   0.00000  Uiso   1.00
C471   C     0.50904   0.72387   0.90099   0.00000  Uiso   1.00
C472   C     0.50770   0.75075   0.90098   0.00000  Uiso   1.00
C473   C     0.55518   0.71462   0.03513   0.00000  Uiso   1.00
C474   C     0.52511   0.69330   0.94796   0.00000  Uiso   1.00
C475   C     0.53508   0.65970   0.99936   0.00000  Uiso   1.00
C476   C     0.58955   0.68232   0.96335   0.00000  Uiso   1.00
C477   C     0.55347   0.62487   0.98833   0.00000  Uiso   1.00
C478   C     0.48217   0.63854   1.03975   0.00000  Uiso   1.00
C479   C     0.50194   0.60357   1.02298   0.00000  Uiso   1.00
C480   C     0.50690   0.63382   1.02017   0.00000  Uiso   1.00
C481   C     0.55872   0.65530   0.98425   0.00000  Uiso   1.00
C482   C     0.52490   0.59868   1.00651   0.00000  Uiso   1.00
H483   H     0.47353   0.64480   1.00360   0.00000  Uiso   1.00
N484   N     0.53595   0.82631   0.98921   0.00000  Uiso   1.00
N485   N     0.53919   0.69017   0.99337   0.00000  Uiso   1.00
H486   H     0.49203   0.65846   0.07373   0.00000  Uiso   1.00
H487   H     0.55423   0.92037   0.92381   0.00000  Uiso   1.00
H488   H     0.49285   0.87917   1.06319   0.00000  Uiso   1.00
H489   H     0.58185   0.89973   0.88690   0.00000  Uiso   1.00
H490   H     0.58867   0.87804   0.93532   0.00000  Uiso   1.00
H491   H     0.55798   0.85635   0.88111   0.00000  Uiso   1.00
H492   H     0.51052   0.82622   0.10061   0.00000  Uiso   1.00
H493   H     0.47854   0.83003   0.09799   0.00000  Uiso   1.00
H494   H     0.47991   0.80298   1.04664   0.00000  Uiso   1.00
O495   O     0.50234   0.80336   0.90720   0.00000  Uiso   1.00
O496   O     0.56935   0.85024   0.07152   0.00000  Uiso   1.00
H497   H     0.58435   0.81486   0.10838   0.00000  Uiso   1.00
H498   H     0.49477   0.75197   0.86677   0.00000  Uiso   1.00
H499   H     0.58490   0.76702   0.11046   0.00000  Uiso   1.00
H500   H     0.59376   0.67483   0.92091   0.00000  Uiso   1.00
H501   H     0.59080   0.70480   0.95909   0.00000  Uiso   1.00
H502   H     0.57144   0.62146   0.97570   0.00000  Uiso   1.00
H503   H     0.49702   0.70511   0.86689   0.00000  Uiso   1.00
H504   H     0.46204   0.61641   1.05718   0.00000  Uiso   1.00
O505   O     0.50994   0.66868   0.90606   0.00000  Uiso   1.00
O506   O     0.56931   0.71084   0.07970   0.00000  Uiso   1.00
H507   H     0.60830   0.68788  -0.00618   0.00000  Uiso   1.00
H508   H     0.44929   0.08012   0.07354   0.00000  Uiso   1.00
C509   C     0.47969   0.40236  -0.00394   0.00000  Uiso   1.00
C510   C     0.50326   0.39812   0.98161   0.00000  Uiso   1.00
C511   C     0.49834   0.36786   0.98272   0.00000  Uiso   1.00
C512   C     0.46935   0.34120   0.99904   0.00000  Uiso   1.00
C513   C     0.44512   0.34491   0.01191   0.00000  Uiso   1.00
C514   C     0.45044   0.37549   0.01010   0.00000  Uiso   1.00
C515   C     0.52407   0.36412   0.96644   0.00000  Uiso   1.00
C516   C     0.41390   0.31648   0.02826   0.00000  Uiso   1.00
C517   C     0.47680   0.30627   0.05182   0.00000  Uiso   1.00
C518   C     0.47727   0.27882   0.05438   0.00000  Uiso   1.00
C519   C     0.46417   0.25516   0.00849   0.00000  Uiso   1.00
C520   C     0.45073   0.25920   0.96113   0.00000  Uiso   1.00
C521   C     0.45185   0.28765   0.95958   0.00000  Uiso   1.00
C522   C     0.49120   0.27490   0.10087   0.00000  Uiso   1.00
C523   C     0.49280   0.24821   0.10113   0.00000  Uiso   1.00
C524   C     0.47995   0.22455   0.05541   0.00000  Uiso   1.00
C525   C     0.46501   0.22769   0.00949   0.00000  Uiso   1.00
C526   C     0.45139   0.20371   0.96415   0.00000  Uiso   1.00
C527   C     0.43727   0.20753   0.91783   0.00000  Uiso   1.00
C528   C     0.43725   0.23516   0.91606   0.00000  Uiso   1.00
C529   C     0.48215   0.19805   0.05383   0.00000  Uiso   1.00
C530   C     0.45280   0.17676   0.96588   0.00000  Uiso   1.00
C531   C     0.47280   0.14881   0.00755   0.00000  Uiso   1.00
C532   C     0.51236   0.17485  -0.07134   0.00000  Uiso   1.00
C533   C     0.49661   0.12255  -0.03334   0.00000  Uiso   1.00
C534   C     0.43311   0.12252   0.08484   0.00000  Uiso   1.00
C535   C     0.46143   0.09911   0.04433   0.00000  Uiso   1.00
C536   C     0.45644   0.12369   0.04506   0.00000  Uiso   1.00
C537   C     0.49332   0.14830  -0.03154   0.00000  Uiso   1.00
C538   C     0.48118   0.09821   0.00494   0.00000  Uiso   1.00
H539   H     0.41540   0.12298   1.06016   0.00000  Uiso   1.00
N540   N     0.46513   0.31064   1.00415   0.00000  Uiso   1.00
N541   N     0.46876   0.17486   0.00950   0.00000  Uiso   1.00
H542   H     0.44488   0.14350   0.11666   0.00000  Uiso   1.00
H543   H     0.52571   0.41854   0.96953   0.00000  Uiso   1.00
H544   H     0.43200   0.37846   0.02090   0.00000  Uiso   1.00
H545   H     0.54536   0.38735   0.95503   0.00000  Uiso   1.00
H546   H     0.53031   0.35547   1.00253   0.00000  Uiso   1.00
H547   H     0.51632   0.34643   0.92904   0.00000  Uiso   1.00
H548   H     0.41664   0.30609   0.06610   0.00000  Uiso   1.00
H549   H     0.39765   0.32345   0.03866   0.00000  Uiso   1.00
H550   H     0.40344   0.29771   0.99230   0.00000  Uiso   1.00
O551   O     0.44042   0.29286   0.91247   0.00000  Uiso   1.00
O552   O     0.48922   0.32946   0.09638   0.00000  Uiso   1.00
H553   H     0.50149   0.29277   0.13664   0.00000  Uiso   1.00
H554   H     0.42678   0.23768   0.87916   0.00000  Uiso   1.00
H555   H     0.50419   0.24623   0.13720   0.00000  Uiso   1.00
H556   H     0.50450   0.16520   0.88386   0.00000  Uiso   1.00
H557   H     0.51082   0.19574  -0.06290   0.00000  Uiso   1.00
H558   H     0.51210   0.12208  -0.06364   0.00000  Uiso   1.00
H559   H     0.42674   0.18952   0.88229   0.00000  Uiso   1.00
H560   H     0.42087   0.10022   0.10848   0.00000  Uiso   1.00
O561   O     0.43894   0.15271   0.92283   0.00000  Uiso   1.00
O562   O     0.49847   0.19581   0.09635   0.00000  Uiso   1.00
H563   H     0.53725   0.18410  -0.06636   0.00000  Uiso   1.00
loop_
_geom_bond_atom_site_label_1
_geom_bond_atom_site_label_2
_geom_bond_distance
_geom_bond_site_symmetry_2
_ccdc_geom_bond_type
Ce0    O9      2.258   .     S
Ce0    O10     2.278   .     S
Ce0    O19     2.297   .     S
Ce0    O11     2.289   1_554 S
Ce0    O12     2.314   1_554 S
Ce0    O14     2.276   1_554 S
Ce0    O15     2.257   1_554 S
Ce1    O13     2.300   .     S
Ce1    O15     2.257   .     S
Ce1    O16     2.270   .     S
Ce1    O8      2.275   1_556 S
Ce1    O9      2.254   1_556 S
Ce1    O17     2.284   1_556 S
Ce1    O18     2.306   1_556 S
C2     O8      1.227   .     D
C2     O9      1.399   .     S
C2     C61     1.471   .     S
C3     O10     1.277   .     A
C3     C370    1.469   .     S
C3     O11     1.281   1_554 A
C4     O12     1.299   .     A
C4     O13     1.296   .     A
C4     C482    1.482   .     S
C5     O14     1.227   .     D
C5     O15     1.398   .     S
C5     C90     1.472   .     S
C6     O16     1.278   .     A
C6     O17     1.282   1_556 A
C6     C229    1.474   1_556 S
C7     O18     1.296   .     A
C7     O19     1.295   .     A
C7     C509    1.479   .     S
O8     Ce1     2.275   1_554 S
O9     Ce1     2.254   1_554 S
O11    Ce0     2.289   1_556 S
O11    C3      1.281   1_556 A
O12    Ce0     2.314   1_556 S
O14    Ce0     2.276   1_556 S
O15    Ce0     2.257   1_556 S
O17    Ce1     2.284   1_554 S
O17    C6      1.282   1_554 A
O18    Ce1     2.306   1_554 S
Ce20   O31     2.290   .     S
Ce20   O34     2.277   .     S
Ce20   O35     2.262   .     S
Ce20   O39     2.309   .     S
Ce20   O29     2.261   1_454 S
Ce20   O30     2.279   1_554 S
Ce20   O32     2.309   1_455 S
Ce21   O33     2.300   .     S
Ce21   O36     2.282   .     S
Ce21   O28     2.279   1_554 S
Ce21   O29     2.262   1_554 S
Ce21   O35     2.260   1_655 S
Ce21   O37     2.284   1_554 S
Ce21   O38     2.311   1_654 S
C22    O28     1.227   .     D
C22    O29     1.401   .     S
C22    C117    1.477   1_655 S
C23    O30     1.279   .     A
C23    O31     1.281   1_556 A
C23    C258    1.478   1_556 S
C24    O32     1.297   .     A
C24    O33     1.296   .     A
C24    C285    1.470   .     S
C25    O34     1.227   .     D
C25    O35     1.401   .     S
C25    C146    1.476   .     S
C26    O36     1.278   .     A
C26    C341    1.467   .     S
C26    O37     1.280   1_554 A
C27    O38     1.297   .     A
C27    C426    1.470   .     S
C27    O39     1.296   1_556 A
O28    Ce21    2.279   1_556 S
O29    Ce20    2.261   1_656 S
O29    Ce21    2.262   1_556 S
O30    Ce20    2.279   1_556 S
O31    C23     1.281   1_554 A
O32    Ce20    2.309   1_655 S
O35    Ce21    2.260   1_455 S
O37    Ce21    2.284   1_556 S
O37    C26     1.280   1_556 A
O38    Ce21    2.311   1_456 S
O39    C27     1.296   1_554 A
Ce40   O51     2.291   .     S
Ce40   O54     2.277   .     S
Ce40   O55     2.259   .     S
Ce40   O59     2.305   .     S
Ce40   O49     2.263   1_566 S
Ce40   O50     2.277   1_556 S
Ce40   O52     2.315   1_565 S
Ce41   O48     2.277   .     S
Ce41   O49     2.257   .     S
Ce41   O53     2.303   .     S
Ce41   O57     2.293   .     S
Ce41   O55     2.267   1_544 S
Ce41   O56     2.277   1_554 S
Ce41   O58     2.306   1_545 S
C42    O48     1.227   .     D
C42    O49     1.401   .     S
C42    C173    1.477   .     S
C43    O51     1.281   .     A
C43    C453    1.473   .     S
C43    O50     1.277   1_556 A
C44    O52     1.298   .     A
C44    C314    1.476   .     S
C44    O53     1.296   1_556 A
C45    O54     1.227   .     D
C45    O55     1.403   .     S
C45    C202    1.479   .     S
C46    O57     1.282   .     A
C46    C538    1.475   .     S
C46    O56     1.277   1_554 A
C47    O58     1.296   .     A
C47    C397    1.466   .     S
C47    O59     1.296   1_554 A
O49    Ce40    2.263   1_544 S
O50    Ce40    2.277   1_554 S
O50    C43     1.277   1_554 A
O52    Ce40    2.315   1_545 S
O53    C44     1.296   1_554 A
O55    Ce41    2.267   1_566 S
O56    Ce41    2.277   1_556 S
O56    C46     1.277   1_556 A
O58    Ce41    2.306   1_565 S
O59    C47     1.296   1_556 A
H60    C87     1.084   .     S
C61    C62     1.403   .     A
C61    C66     1.402   .     A
C62    C63     1.402   .     A
C62    H95     1.084   .     S
C63    C64     1.411   .     A
C63    C67     1.506   .     S
C64    C65     1.411   .     A
C64    N92     1.438   .     S
C65    C66     1.402   .     A
C65    C68     1.505   .     S
C66    H96     1.085   .     S
C67    H97     1.110   .     S
C67    H98     1.111   .     S
C67    H99     1.110   .     S
C68    H100    1.109   .     S
C68    H101    1.110   .     S
C68    H102    1.110   .     S
C69    C70     1.403   .     A
C69    N92     1.369   .     A
C69    O104    1.374   .     S
C70    C71     1.410   .     A
C70    C74     1.404   .     A
C71    C72     1.409   .     A
C71    C77     1.412   .     A
C72    C73     1.403   .     A
C72    C80     1.406   .     A
C73    N92     1.370   .     A
C73    O103    1.373   .     S
C74    C75     1.396   .     A
C74    H105    1.084   .     S
C75    C76     1.406   .     A
C75    H107    1.083   .     S
C76    C77     1.409   .     A
C76    C81     1.403   .     A
C77    C78     1.410   .     A
C78    C79     1.405   .     A
C78    C82     1.404   .     A
C79    C80     1.396   .     A
C79    H111    1.084   .     S
C80    H106    1.084   .     S
C81    N93     1.370   .     A
C81    O114    1.373   .     S
C82    N93     1.369   .     A
C82    O113    1.374   .     S
C83    C88     1.413   .     A
C83    C89     1.414   .     A
C83    N93     1.438   .     S
C84    C89     1.507   .     S
C84    H108    1.111   .     S
C84    H109    1.109   .     S
C84    H115    1.111   .     S
C85    C89     1.402   .     A
C85    C90     1.403   .     A
C85    H110    1.085   .     S
C86    C88     1.506   .     S
C86    H91     1.110   .     S
C86    H94     1.110   .     S
C86    H112    1.111   .     S
C87    C88     1.401   .     A
C87    C90     1.401   .     A
H116   C143    1.083   .     S
C117   C122    1.403   .     A
C117   C118    1.404   1_455 A
C117   C22     1.477   1_455 S
C118   C119    1.404   .     A
C118   H151    1.083   .     S
C118   C117    1.404   1_655 A
C119   C120    1.410   .     A
C119   C123    1.506   .     S
C120   N148    1.439   .     S
C120   C121    1.409   1_655 A
C121   C122    1.403   .     A
C121   C124    1.505   .     S
C121   C120    1.409   1_455 A
C122   H152    1.083   .     S
C123   H153    1.110   .     S
C123   H154    1.111   .     S
C123   H155    1.111   .     S
C124   H156    1.110   .     S
C124   H157    1.110   .     S
C124   H158    1.111   .     S
C125   C126    1.405   .     A
C125   O160    1.373   .     S
C125   N148    1.369   1_455 A
C126   C130    1.405   .     A
C126   C127    1.409   1_455 A
C127   C128    1.409   .     A
C127   C133    1.413   .     A
C127   C126    1.409   1_655 A
C128   C129    1.403   .     A
C128   C136    1.404   .     A
C129   N148    1.369   .     A
C129   O159    1.373   .     S
C130   C131    1.397   .     A
C130   H161    1.083   .     S
C131   C132    1.406   .     A
C131   H163    1.083   .     S
C132   C137    1.405   .     A
C132   C133    1.409   1_455 A
C133   C134    1.409   .     A
C133   C132    1.409   1_655 A
C134   C135    1.405   .     A
C134   C138    1.403   .     A
C135   C136    1.396   .     A
C135   H167    1.083   .     S
C136   H162    1.083   .     S
C137   O170    1.372   .     S
C137   N149    1.370   1_455 A
C138   N149    1.370   .     A
C138   O169    1.374   .     S
C139   C144    1.412   .     A
C139   C145    1.413   1_455 A
C139   N149    1.439   1_455 S
C140   C145    1.506   .     S
C140   H164    1.110   .     S
C140   H165    1.109   .     S
C140   H171    1.110   .     S
C141   C145    1.402   .     A
C141   H166    1.084   .     S
C141   C146    1.402   1_655 A
C142   C144    1.505   .     S
C142   H147    1.111   .     S
C142   H150    1.111   .     S
C142   H168    1.111   .     S
C143   C144    1.403   .     A
C143   C146    1.403   .     A
C145   C139    1.413   1_655 A
C146   C141    1.402   1_455 A
N148   C125    1.369   1_655 A
N149   C137    1.370   1_655 A
N149   C139    1.439   1_655 S
H172   C199    1.083   .     S
C173   C178    1.402   .     A
C173   C174    1.404   1_545 A
C174   C175    1.404   .     A
C174   H207    1.084   .     S
C174   C173    1.404   1_565 A
C175   C176    1.411   .     A
C175   C179    1.505   .     S
C176   N204    1.441   .     S
C176   C177    1.410   1_565 A
C177   C178    1.403   .     A
C177   C180    1.504   .     S
C177   C176    1.410   1_545 A
C178   H208    1.083   .     S
C179   H209    1.110   .     S
C179   H210    1.110   .     S
C179   H211    1.110   .     S
C180   H212    1.110   .     S
C180   H213    1.110   .     S
C180   H214    1.110   .     S
C181   C182    1.406   .     A
C181   O216    1.373   .     S
C181   N204    1.370   1_545 A
C182   C186    1.406   .     A
C182   C183    1.408   1_545 A
C183   C184    1.409   .     A
C183   C189    1.414   .     A
C183   C182    1.408   1_565 A
C184   C185    1.405   .     A
C184   C192    1.404   .     A
C185   N204    1.369   .     A
C185   O215    1.373   .     S
C186   C187    1.398   .     A
C186   H217    1.083   .     S
C187   C188    1.405   .     A
C187   H219    1.084   .     S
C188   C193    1.406   .     A
C188   C189    1.409   1_545 A
C189   C190    1.408   .     A
C189   C188    1.409   1_565 A
C190   C191    1.405   .     A
C190   C194    1.404   .     A
C191   C192    1.397   .     A
C191   H223    1.082   .     S
C192   H218    1.083   .     S
C193   O226    1.373   .     S
C193   N205    1.370   1_545 A
C194   N205    1.370   .     A
C194   O225    1.373   .     S
C195   C201    1.413   .     A
C195   N205    1.441   .     S
C195   C200    1.412   1_565 A
C196   C201    1.506   .     S
C196   H220    1.110   .     S
C196   H221    1.109   .     S
C196   H227    1.110   .     S
C197   C201    1.403   .     A
C197   C202    1.404   .     A
C197   H222    1.084   .     S
C198   C200    1.505   .     S
C198   H203    1.110   .     S
C198   H206    1.110   .     S
C198   H224    1.110   .     S
C199   C200    1.404   .     A
C199   C202    1.402   1_545 A
C200   C195    1.412   1_545 A
C202   C199    1.402   1_565 A
N204   C181    1.370   1_565 A
N205   C193    1.370   1_565 A
H228   C255    1.083   .     S
C229   C230    1.402   .     A
C229   C234    1.402   1_554 A
C229   C6      1.474   1_554 S
C230   C231    1.403   .     A
C230   H263    1.083   .     S
C231   C232    1.413   .     A
C231   C235    1.507   .     S
C232   N260    1.438   .     S
C232   C233    1.410   1_554 A
C233   C234    1.401   .     A
C233   C236    1.505   .     S
C233   C232    1.410   1_556 A
C234   H264    1.084   .     S
C234   C229    1.402   1_556 A
C235   H265    1.111   .     S
C235   H266    1.111   .     S
C235   H267    1.110   .     S
C236   H268    1.110   .     S
C236   H269    1.112   .     S
C236   H270    1.111   .     S
C237   C238    1.403   .     A
C237   O272    1.374   .     S
C237   N260    1.371   1_556 A
C238   C242    1.406   .     A
C238   C239    1.409   1_556 A
C239   C240    1.410   .     A
C239   C245    1.413   .     A
C239   C238    1.409   1_554 A
C240   C241    1.405   .     A
C240   C248    1.405   .     A
C241   N260    1.368   .     A
C241   O271    1.373   .     S
C242   C243    1.396   .     A
C242   H273    1.085   .     S
C243   C244    1.407   .     A
C243   H275    1.084   .     S
C244   C249    1.404   .     A
C244   C245    1.409   1_556 A
C245   C246    1.410   .     A
C245   C244    1.409   1_554 A
C246   C247    1.406   .     A
C246   C250    1.406   .     A
C247   C248    1.397   .     A
C247   H279    1.083   .     S
C248   H274    1.084   .     S
C249   O282    1.373   .     S
C249   N261    1.371   1_556 A
C250   N261    1.370   .     A
C250   O281    1.373   .     S
C251   C257    1.415   .     A
C251   N261    1.441   .     S
C251   C256    1.412   1_554 A
C252   C257    1.508   .     S
C252   H276    1.110   .     S
C252   H277    1.109   .     S
C252   H283    1.111   .     S
C253   C257    1.404   .     A
C253   C258    1.403   .     A
C253   H278    1.084   .     S
C254   C256    1.505   .     S
C254   H259    1.110   .     S
C254   H262    1.110   .     S
C254   H280    1.111   .     S
C255   C256    1.403   .     A
C255   C258    1.401   1_556 A
C256   C251    1.412   1_556 A
C258   C255    1.401   1_554 A
C258   C23     1.478   1_554 S
N260   C237    1.371   1_554 A
N261   C249    1.371   1_554 A
H284   C311    1.084   .     S
C285   C286    1.401   .     A
C285   C290    1.401   1_554 A
C286   C287    1.401   .     A
C286   H319    1.084   .     S
C287   C288    1.414   .     A
C287   C291    1.508   .     S
C288   N316    1.439   .     S
C288   C289    1.414   1_554 A
C289   C290    1.404   .     A
C289   C292    1.507   .     S
C289   C288    1.414   1_556 A
C290   H320    1.084   .     S
C290   C285    1.401   1_556 A
C291   H321    1.111   .     S
C291   H322    1.109   .     S
C291   H323    1.111   .     S
C292   H324    1.111   .     S
C292   H325    1.112   .     S
C292   H326    1.111   .     S
C293   C294    1.403   .     A
C293   N316    1.371   .     A
C293   O328    1.373   .     S
C294   C295    1.409   .     A
C294   C298    1.406   .     A
C295   C296    1.410   .     A
C295   C301    1.413   .     A
C296   C297    1.406   .     A
C296   C304    1.405   .     A
C297   N316    1.369   .     A
C297   O327    1.373   .     S
C298   C299    1.396   .     A
C298   H329    1.084   .     S
C299   C300    1.405   .     A
C299   H331    1.083   .     S
C300   C301    1.409   .     A
C300   C305    1.403   .     A
C301   C302    1.409   .     A
C302   C303    1.406   .     A
C302   C306    1.407   .     A
C303   C304    1.398   .     A
C303   H335    1.083   .     S
C304   H330    1.084   .     S
C305   N317    1.370   .     A
C305   O338    1.374   1_554 S
C306   N317    1.371   .     A
C306   O337    1.372   .     S
C307   C313    1.414   .     A
C307   N317    1.441   .     S
C307   C312    1.414   1_554 A
C308   C313    1.507   .     S
C308   H332    1.111   .     S
C308   H333    1.109   .     S
C308   H339    1.110   .     S
C309   C313    1.401   .     A
C309   H334    1.085   .     S
C309   C314    1.401   1_554 A
C310   C312    1.506   .     S
C310   H315    1.110   .     S
C310   H318    1.111   .     S
C310   H336    1.110   .     S
C311   C312    1.407   .     A
C311   C314    1.403   .     A
C312   C307    1.414   1_556 A
C314   C309    1.401   1_556 A
O338   C305    1.374   1_556 S
H340   C367    1.083   .     S
C341   C342    1.398   .     A
C341   C346    1.399   1_554 A
C342   C343    1.405   .     A
C342   H375    1.084   .     S
C343   C344    1.415   .     A
C343   C347    1.505   .     S
C344   N372    1.443   .     S
C344   C345    1.414   1_554 A
C345   C346    1.403   .     A
C345   C348    1.506   .     S
C345   C344    1.414   1_556 A
C346   H376    1.084   .     S
C346   C341    1.399   1_556 A
C347   H377    1.111   .     S
C347   H378    1.110   .     S
C347   H379    1.109   .     S
C348   H380    1.109   .     S
C348   H381    1.110   .     S
C348   H382    1.110   1_556 S
C349   C350    1.408   .     A
C349   O384    1.373   .     S
C349   N372    1.371   1_556 A
C350   C354    1.406   .     A
C350   C351    1.408   1_556 A
C351   C352    1.408   .     A
C351   C357    1.414   .     A
C351   C350    1.408   1_554 A
C352   C353    1.405   .     A
C352   C360    1.405   .     A
C353   N372    1.370   .     A
C353   O383    1.373   .     S
C354   C355    1.398   .     A
C354   H385    1.082   .     S
C355   C356    1.405   .     A
C355   H387    1.083   .     S
C356   C361    1.407   .     A
C356   C357    1.409   1_556 A
C357   C358    1.408   .     A
C357   C356    1.409   1_554 A
C358   C359    1.405   .     A
C358   C362    1.405   .     A
C359   C360    1.397   .     A
C359   H391    1.083   .     S
C360   H386    1.083   .     S
C361   O394    1.373   .     S
C361   N373    1.370   1_556 A
C362   N373    1.370   .     A
C362   O393    1.372   .     S
C363   C368    1.414   .     A
C363   C369    1.415   .     A
C363   N373    1.442   .     S
C364   H389    1.108   .     S
C364   H395    1.110   .     S
C364   C369    1.505   1_556 S
C364   H388    1.110   1_556 S
C365   H390    1.082   .     S
C365   C369    1.406   1_556 A
C365   C370    1.398   1_556 A
C366   C368    1.507   .     S
C366   H371    1.110   .     S
C366   H392    1.111   .     S
C366   H374    1.110   1_554 S
C367   C368    1.402   .     A
C367   C370    1.398   .     A
C369   C364    1.505   1_554 S
C369   C365    1.406   1_554 A
C370   C365    1.398   1_554 A
N372   C349    1.371   1_554 A
N373   C361    1.370   1_554 A
H374   C366    1.110   1_556 S
H382   C348    1.110   1_554 S
H388   C364    1.110   1_554 S
H396   C423    1.084   .     S
C397   C402    1.399   .     A
C397   C398    1.396   1_554 A
C398   C399    1.403   .     A
C398   H431    1.084   .     S
C398   C397    1.396   1_556 A
C399   C400    1.414   .     A
C399   C403    1.504   .     S
C400   N428    1.444   .     S
C400   C401    1.415   1_556 A
C401   C402    1.405   .     A
C401   C404    1.505   .     S
C401   C400    1.415   1_554 A
C402   H432    1.084   .     S
C403   H433    1.111   .     S
C403   H434    1.109   .     S
C403   H435    1.110   .     S
C404   H436    1.110   .     S
C404   H437    1.111   .     S
C404   H438    1.110   .     S
C405   C406    1.405   .     A
C405   N428    1.370   .     A
C405   O440    1.373   .     S
C406   C407    1.408   .     A
C406   C410    1.405   .     A
C407   C413    1.415   .     A
C407   C408    1.409   1_556 A
C408   C409    1.409   .     A
C408   C416    1.406   .     A
C408   C407    1.409   1_554 A
C409   O439    1.373   .     S
C409   N428    1.371   1_554 A
C410   C411    1.396   .     A
C410   H441    1.083   .     S
C411   C412    1.405   .     A
C411   H443    1.083   .     S
C412   C413    1.408   .     A
C412   C417    1.404   .     A
C413   C414    1.409   1_556 A
C414   C415    1.406   .     A
C414   C418    1.409   .     A
C414   C413    1.409   1_554 A
C415   C416    1.400   .     A
C415   H447    1.083   .     S
C416   H442    1.083   .     S
C417   N429    1.370   .     A
C417   O450    1.373   .     S
C418   O449    1.372   .     S
C418   N429    1.371   1_554 A
C419   C425    1.415   .     A
C419   N429    1.443   .     S
C419   C424    1.413   1_556 A
C420   C425    1.506   .     S
C420   H444    1.110   .     S
C420   H445    1.108   .     S
C420   H451    1.110   .     S
C421   C425    1.405   .     A
C421   C426    1.400   .     A
C421   H446    1.084   .     S
C422   C424    1.505   .     S
C422   H427    1.111   .     S
C422   H430    1.110   .     S
C422   H448    1.110   .     S
C423   C424    1.405   .     A
C423   C426    1.399   1_554 A
C424   C419    1.413   1_554 A
C426   C423    1.399   1_556 A
N428   C409    1.371   1_556 A
N429   C418    1.371   1_556 A
H452   C479    1.084   .     S
C453   C454    1.400   .     A
C453   C458    1.401   .     A
C454   C455    1.405   .     A
C454   H487    1.084   .     S
C455   C456    1.415   .     A
C455   C459    1.506   .     S
C456   C457    1.414   .     A
C456   N484    1.444   .     S
C457   C458    1.403   .     A
C457   C460    1.507   .     S
C458   H488    1.084   .     S
C459   H489    1.111   .     S
C459   H490    1.110   .     S
C459   H491    1.109   .     S
C460   H494    1.110   .     S
C460   H492    1.109   1_556 S
C460   H493    1.110   1_556 S
C461   C462    1.407   .     A
C461   O496    1.372   .     S
C461   N484    1.372   1_554 A
C462   C466    1.406   .     A
C462   C463    1.408   1_554 A
C463   C464    1.409   .     A
C463   C469    1.413   .     A
C463   C462    1.408   1_556 A
C464   C465    1.404   .     A
C464   C472    1.405   .     A
C465   N484    1.369   .     A
C465   O495    1.373   .     S
C466   C467    1.397   .     A
C466   H497    1.083   .     S
C467   C468    1.405   .     A
C467   H499    1.083   .     S
C468   C473    1.406   .     A
C468   C469    1.409   1_554 A
C469   C470    1.408   .     A
C469   C468    1.409   1_556 A
C470   C471    1.406   .     A
C470   C474    1.404   .     A
C471   C472    1.397   .     A
C471   H503    1.083   .     S
C472   H498    1.084   .     S
C473   O506    1.373   .     S
C473   N485    1.370   1_554 A
C474   N485    1.371   .     A
C474   O505    1.373   .     S
C475   C480    1.411   .     A
C475   C481    1.415   .     A
C475   N485    1.442   .     S
C476   C481    1.505   .     S
C476   H500    1.110   .     S
C476   H501    1.109   .     S
C476   H507    1.110   1_556 S
C477   C481    1.406   .     A
C477   C482    1.404   .     A
C477   H502    1.084   .     S
C478   C480    1.507   .     S
C478   H483    1.110   .     S
C478   H504    1.110   .     S
C478   H486    1.111   1_556 S
C479   C480    1.400   .     A
C479   C482    1.405   .     A
N484   C461    1.372   1_556 A
N485   C473    1.370   1_556 A
H486   C478    1.111   1_554 S
H492   C460    1.109   1_554 S
H493   C460    1.110   1_554 S
H507   C476    1.110   1_554 S
H508   C535    1.083   .     S
C509   C514    1.404   .     A
C509   C510    1.403   1_554 A
C510   C511    1.397   .     A
C510   H543    1.083   .     S
C510   C509    1.403   1_556 A
C511   C512    1.409   .     A
C511   C515    1.506   .     S
C512   N540    1.440   .     S
C512   C513    1.412   1_556 A
C513   C514    1.406   .     A
C513   C516    1.504   .     S
C513   C512    1.412   1_554 A
C514   H544    1.083   .     S
C515   H545    1.110   .     S
C515   H546    1.110   .     S
C515   H547    1.110   .     S
C516   H548    1.111   .     S
C516   H549    1.111   .     S
C516   H550    1.110   1_554 S
C517   C518    1.403   .     A
C517   O552    1.373   .     S
C517   N540    1.370   1_554 A
C518   C519    1.408   .     A
C518   C522    1.405   .     A
C519   C525    1.413   .     A
C519   C520    1.409   1_554 A
C520   C521    1.405   .     A
C520   C528    1.405   .     A
C520   C519    1.409   1_556 A
C521   N540    1.369   .     A
C521   O551    1.373   .     S
C522   C523    1.396   .     A
C522   H553    1.083   .     S
C523   C524    1.405   .     A
C523   H555    1.084   .     S
C524   C525    1.408   .     A
C524   C529    1.404   .     A
C525   C526    1.408   1_554 A
C526   C527    1.406   .     A
C526   C530    1.406   .     A
C526   C525    1.408   1_556 A
C527   C528    1.397   .     A
C527   H559    1.083   .     S
C528   H554    1.083   .     S
C529   N541    1.370   .     A
C529   O562    1.373   .     S
C530   O561    1.373   .     S
C530   N541    1.372   1_556 A
C531   C536    1.415   .     A
C531   C537    1.417   .     A
C531   N541    1.443   .     S
C532   C537    1.509   .     S
C532   H557    1.108   .     S
C532   H563    1.110   .     S
C532   H556    1.111   1_554 S
C533   C537    1.402   .     A
C533   C538    1.401   .     A
C533   H558    1.083   .     S
C534   C536    1.507   .     S
C534   H542    1.108   .     S
C534   H560    1.111   .     S
C534   H539    1.111   1_554 S
C535   C536    1.405   .     A
C535   C538    1.399   .     A
H539   C534    1.111   1_556 S
N540   C517    1.370   1_556 A
N541   C530    1.372   1_554 A
H550   C516    1.110   1_556 S
H556   C532    1.111   1_556 S
