data_kag+N106+E229
_audit_creation_date              2025-01-21
_audit_creation_method            'Materials Studio'
_symmetry_space_group_name_H-M    'P1'
_symmetry_Int_Tables_number       1
_symmetry_cell_setting            triclinic
loop_
_symmetry_equiv_pos_as_xyz
  x,y,z
_cell_length_a                    45.3022
_cell_length_b                    51.5633
_cell_length_c                    22.6581
_cell_angle_alpha                 82.2274
_cell_angle_beta                  102.6229
_cell_angle_gamma                 124.1014
loop_
_atom_site_label
_atom_site_type_symbol
_atom_site_fract_x
_atom_site_fract_y
_atom_site_fract_z
_atom_site_U_iso_or_equiv
_atom_site_adp_type
_atom_site_occupancy
Y0     Y     0.51090   0.53961  -0.01403   0.00000  Uiso   1.00
Y1     Y     0.50127   0.47309   1.01328   0.00000  Uiso   1.00
O2     O     0.56477   0.54822  -0.02339   0.00000  Uiso   1.00
O3     O     0.48560   0.49592   0.93165   0.00000  Uiso   1.00
C4     C     0.48998   0.41733   1.05725   0.00000  Uiso   1.00
O5     O     0.51708   0.47851   0.92098   0.00000  Uiso   1.00
O6     O     0.53419   0.59122  -0.00578   0.00000  Uiso   1.00
O7     O     0.50230   0.56982   0.91179   0.00000  Uiso   1.00
O8     O     0.56185   0.50670   1.02913   0.00000  Uiso   1.00
O9     O     0.52641   0.51674   0.06758   0.00000  Uiso   1.00
O10    O     0.49532   0.53451   0.07838   0.00000  Uiso   1.00
O11    O     0.45028   0.50598  -0.02799   0.00000  Uiso   1.00
C12    C     0.57966   0.53379   1.00420   0.00000  Uiso   1.00
O13    O     0.44809   0.46482   1.02476   0.00000  Uiso   1.00
C14    C     0.50429   0.49318   0.89532   0.00000  Uiso   1.00
O15    O     0.47627   0.42115   1.00473   0.00000  Uiso   1.00
O16    O     0.50950   0.44235   0.08656   0.00000  Uiso   1.00
C17    C     0.52060   0.59475  -0.05864   0.00000  Uiso   1.00
C18    C     0.43290   0.47907  -0.00221   0.00000  Uiso   1.00
C19    C     0.50796   0.51972   0.10399   0.00000  Uiso   1.00
Y20    Y     0.98683   0.52448  -0.02121   0.00000  Uiso   1.00
Y21    Y     0.02781   0.48969   0.98070   0.00000  Uiso   1.00
O22    O     0.04539   0.56483  -0.00462   0.00000  Uiso   1.00
O23    O     1.02334   0.52650   0.92188   0.00000  Uiso   1.00
C24    C     0.06693   0.46378   1.01184   0.00000  Uiso   1.00
O25    O     0.01245   0.48695   0.87821   0.00000  Uiso   1.00
O26    O     0.97375   0.55895  -0.06999   0.00000  Uiso   1.00
O27    O     0.93896   0.52569   0.98771   0.00000  Uiso   1.00
O28    O     0.07002   0.53636   1.02521   0.00000  Uiso   1.00
O29    O    -0.00901   0.48747   0.03728   0.00000  Uiso   1.00
O30    O     1.00241   0.52719   0.08101   0.00000  Uiso   1.00
O31    O     0.94591   0.47867  -0.07012   0.00000  Uiso   1.00
C32    C     0.07261   0.56265   1.01695   0.00000  Uiso   1.00
O33    O     0.96971   0.44986   0.96258   0.00000  Uiso   1.00
C34    C     0.01123   0.51009   0.86976   0.00000  Uiso   1.00
O35    O     0.03839   0.45413   1.03142   0.00000  Uiso   1.00
O36    O     0.07481   0.48645  -0.02503   0.00000  Uiso   1.00
C37    C     0.94539   0.54825  -0.04879   0.00000  Uiso   1.00
C38    C     0.94326   0.45231  -0.06348   0.00000  Uiso   1.00
C39    C     0.00318   0.50386   0.08947   0.00000  Uiso   1.00
Y40    Y     0.49003   0.02778   0.99416   0.00000  Uiso   1.00
Y41    Y     0.51353   0.97928   0.03574   0.00000  Uiso   1.00
O42    O     0.43926   0.98197   1.01440   0.00000  Uiso   1.00
O43    O     0.51580   0.01643   0.08225   0.00000  Uiso   1.00
C44    C     0.54278   0.94526   0.04192   0.00000  Uiso   1.00
O45    O     0.49464   0.97164   0.12542   0.00000  Uiso   1.00
O46    O     0.48854   0.06813   1.01733   0.00000  Uiso   1.00
O47    O     0.45261   0.04174  -0.05879   0.00000  Uiso   1.00
O48    O     0.45390   0.94885  -0.00174   0.00000  Uiso   1.00
O49    O     0.48785   0.99060   0.94789   0.00000  Uiso   1.00
O50    O     0.51429   0.03689   0.91002   0.00000  Uiso   1.00
O51    O     0.55025   0.06056   1.02368   0.00000  Uiso   1.00
C52    C     0.43035   0.95429   0.00488   0.00000  Uiso   1.00
O53    O     0.56631   0.02611   0.02879   0.00000  Uiso   1.00
C54    C     0.49798  -0.00341   0.12681   0.00000  Uiso   1.00
O55    O     0.51390   0.93536   0.06071   0.00000  Uiso   1.00
O56    O     0.55609   0.97246   1.01944   0.00000  Uiso   1.00
C57    C     0.46409   0.06466   0.97367   0.00000  Uiso   1.00
C58    C     0.57446   0.05430   1.02944   0.00000  Uiso   1.00
C59    C     0.50836   0.01111   0.90652   0.00000  Uiso   1.00
C60    C     0.49105   0.50543   0.26665   0.00000  Uiso   1.00
C61    C     0.50524   0.48698   0.28864   0.00000  Uiso   1.00
C62    C     0.52015   0.47969   0.25099   0.00000  Uiso   1.00
C63    C     0.52106   0.49054   0.19114   0.00000  Uiso   1.00
C64    C     0.50650   0.50847   0.16766   0.00000  Uiso   1.00
C65    C     0.49172   0.51600   0.20585   0.00000  Uiso   1.00
C66    C     0.47507   0.51433   0.30606   0.00000  Uiso   1.00
H67    H     0.50517   0.47830   0.33489   0.00000  Uiso   1.00
H68    H     0.53134   0.46577   0.26846   0.00000  Uiso   1.00
H69    H     0.53323   0.48492   0.16321   0.00000  Uiso   1.00
H70    H     0.48098   0.53030   0.18858   0.00000  Uiso   1.00
H71    H     0.49156   0.54023   0.31090   0.00000  Uiso   1.00
H72    H     0.44765   0.50768   0.28214   0.00000  Uiso   1.00
C73    C     0.52196   0.50796   0.73293   0.00000  Uiso   1.00
C74    C     0.52156   0.49765   0.79393   0.00000  Uiso   1.00
C75    C     0.53854   0.49961   0.69365   0.00000  Uiso   1.00
C76    C     0.51587   0.49828   0.58518   0.00000  Uiso   1.00
C77    C     0.52234   0.51818   0.52697   0.00000  Uiso   1.00
C78    C     0.50657   0.52541   0.71023   0.00000  Uiso   1.00
C79    C     0.49080   0.53203   0.74731   0.00000  Uiso   1.00
C80    C     0.50585   0.50448   0.83160   0.00000  Uiso   1.00
H81    H     0.50616   0.53365   0.66370   0.00000  Uiso   1.00
H82    H     0.47867   0.54516   0.72919   0.00000  Uiso   1.00
H83    H     0.47749   0.52673   0.83491   0.00000  Uiso   1.00
H84    H     0.53331   0.48418   0.81183   0.00000  Uiso   1.00
H85    H     0.52186   0.47382   0.68708   0.00000  Uiso   1.00
C86    C     0.49987   0.51763   0.41373   0.00000  Uiso   1.00
C87    C     0.49380   0.49889   0.47318   0.00000  Uiso   1.00
H88    H     0.51700   0.47780   0.57920   0.00000  Uiso   1.00
H89    H     0.52107   0.53862   0.53253   0.00000  Uiso   1.00
H90    H     0.54967   0.52687   0.51815   0.00000  Uiso   1.00
H91    H     0.48864   0.48979   0.59432   0.00000  Uiso   1.00
H92    H     0.56562   0.50571   0.71846   0.00000  Uiso   1.00
H93    H     0.49939   0.53861   0.41817   0.00000  Uiso   1.00
H94    H     0.52661   0.52512   0.40386   0.00000  Uiso   1.00
N95    N     0.47096   0.49786   0.36504   0.00000  Uiso   1.00
N96    N     0.54388   0.51716   0.63580   0.00000  Uiso   1.00
C97    C     0.49026   0.52155   0.80742   0.00000  Uiso   1.00
C98    C     0.01268   0.53706   0.70690   0.00000  Uiso   1.00
C99    C     0.98871   0.54688   0.69847   0.00000  Uiso   1.00
C100   C     0.97197   0.54432   0.74585   0.00000  Uiso   1.00
C101   C     0.97896   0.53188   0.80179   0.00000  Uiso   1.00
C102   C     0.00216   0.52133   0.81018   0.00000  Uiso   1.00
C103   C     0.01876   0.52371   0.76260   0.00000  Uiso   1.00
C104   C     0.03255   0.54188   0.65743   0.00000  Uiso   1.00
H105   H     0.98339   0.55686   0.65547   0.00000  Uiso   1.00
H106   H     0.95396   0.55238   0.73947   0.00000  Uiso   1.00
H107   H     0.96598   0.53015   0.83821   0.00000  Uiso   1.00
H108   H     0.03745   0.51630   0.76974   0.00000  Uiso   1.00
H109   H     0.04717   0.56707   0.64381   0.00000  Uiso   1.00
H110   H     0.05287   0.53563   0.67380   0.00000  Uiso   1.00
C111   C     0.99996   0.47679   0.25215   0.00000  Uiso   1.00
C112   C     0.99461   0.49033   0.19622   0.00000  Uiso   1.00
C113   C     0.98040   0.47294   0.30144   0.00000  Uiso   1.00
C114   C     0.98842   0.48945   0.40091   0.00000  Uiso   1.00
C115   C     0.01673   0.50880   0.45411   0.00000  Uiso   1.00
C116   C     0.02326   0.46623   0.26128   0.00000  Uiso   1.00
C117   C     0.04042   0.46863   0.21465   0.00000  Uiso   1.00
C118   C     0.01140   0.49230   0.14922   0.00000  Uiso   1.00
H119   H     0.02787   0.45592   0.30430   0.00000  Uiso   1.00
H120   H     0.05831   0.46042   0.22180   0.00000  Uiso   1.00
H121   H     0.04742   0.48294   0.12267   0.00000  Uiso   1.00
H122   H     0.97649   0.49836   0.18857   0.00000  Uiso   1.00
H123   H     0.96467   0.44777   0.31500   0.00000  Uiso   1.00
C124   C     0.02585   0.52610   0.55839   0.00000  Uiso   1.00
C125   C     0.99826   0.50665   0.50483   0.00000  Uiso   1.00
H126   H     0.97090   0.49864   0.38430   0.00000  Uiso   1.00
H127   H     0.03441   0.49980   0.47069   0.00000  Uiso   1.00
H128   H     0.03356   0.53366   0.43926   0.00000  Uiso   1.00
H129   H     0.97154   0.46457   0.41589   0.00000  Uiso   1.00
H130   H     0.96113   0.48034   0.28506   0.00000  Uiso   1.00
H131   H     0.04411   0.51766   0.57506   0.00000  Uiso   1.00
H132   H     0.04188   0.55110   0.54379   0.00000  Uiso   1.00
N133   N     0.00669   0.52255   0.60597   0.00000  Uiso   1.00
N134   N     1.00679   0.49182   0.35294   0.00000  Uiso   1.00
C135   C     0.03417   0.48130   0.15853   0.00000  Uiso   1.00
C136   C     0.46889   0.99625   0.27153   0.00000  Uiso   1.00
C137   C     0.46491   1.02170   0.26034   0.00000  Uiso   1.00
C138   C     0.47336   1.03960   0.20728   0.00000  Uiso   1.00
C139   C     0.48444   1.03152   0.16396   0.00000  Uiso   1.00
C140   C     0.48696   1.00531   0.17320   0.00000  Uiso   1.00
C141   C     0.47913   0.98775   0.22710   0.00000  Uiso   1.00
C142   C     0.46296   0.97879   0.33105   0.00000  Uiso   1.00
H143   H     0.45556   1.02782   0.29293   0.00000  Uiso   1.00
H144   H     0.47163   1.05994   0.19993   0.00000  Uiso   1.00
H145   H     0.49062   1.04552   0.12303   0.00000  Uiso   1.00
H146   H     0.48165   0.96784   0.23493   0.00000  Uiso   1.00
H147   H     0.43468   0.96873   0.33666   0.00000  Uiso   1.00
H148   H     0.46689   0.95926   0.33205   0.00000  Uiso   1.00
C149   C     0.54008   0.01125   0.76546   0.00000  Uiso   1.00
C150   C     0.53004   0.02052   0.80890   0.00000  Uiso   1.00
C151   C     0.54676   0.02827   0.70585   0.00000  Uiso   1.00
C152   C     0.52656   0.02038   0.59837   0.00000  Uiso   1.00
C153   C     0.49818   0.99625   0.55090   0.00000  Uiso   1.00
C154   C     0.54176  -0.01542   0.77655   0.00000  Uiso   1.00
C155   C     0.53205  -0.03334   0.82924   0.00000  Uiso   1.00
C156   C     0.51992   0.00228   0.86153   0.00000  Uiso   1.00
H157   H     0.54944  -0.02286   0.74336   0.00000  Uiso   1.00
H158   H     0.53316  -0.05397   0.83750   0.00000  Uiso   1.00
H159   H     0.51128  -0.03990   0.91020   0.00000  Uiso   1.00
H160   H     0.52869   0.04109   0.80065   0.00000  Uiso   1.00
H161   H     0.57430   0.03617   0.69940   0.00000  Uiso   1.00
C162   C     0.47981   0.98561   0.43887   0.00000  Uiso   1.00
C163   C     0.50744   0.00880   0.48812   0.00000  Uiso   1.00
H164   H     0.52535   0.04158   0.59161   0.00000  Uiso   1.00
H165   H     0.49741   0.97415   0.56039   0.00000  Uiso   1.00
H166   H     0.47116   0.99131   0.55299   0.00000  Uiso   1.00
H167   H     0.55389   0.02690   0.59362   0.00000  Uiso   1.00
H168   H     0.54537   0.04921   0.70462   0.00000  Uiso   1.00
H169   H     0.48055   0.96419   0.44510   0.00000  Uiso   1.00
H170   H     0.45241   0.97937   0.44220   0.00000  Uiso   1.00
N171   N     0.48880   1.00032   0.38005   0.00000  Uiso   1.00
N172   N     0.51907   0.00674   0.65831   0.00000  Uiso   1.00
C173   C     0.52017  -0.02504   0.87077   0.00000  Uiso   1.00
C174   C     0.33969   0.43267   1.04062   0.00000  Uiso   1.00
C175   C     0.31822   0.42957   0.98365   0.00000  Uiso   1.00
C176   C     0.33434   0.44402   0.93267   0.00000  Uiso   1.00
C177   C     0.37194   0.46111   0.93782   0.00000  Uiso   1.00
C178   C     0.39364   0.46314   0.99391   0.00000  Uiso   1.00
C179   C     0.37746   0.44897   1.04529   0.00000  Uiso   1.00
C180   C     0.32245   0.41934   1.09621   0.00000  Uiso   1.00
H181   H     0.28901   0.41644   0.97884   0.00000  Uiso   1.00
H182   H     0.31768   0.44175   0.88896   0.00000  Uiso   1.00
H183   H     0.38404   0.47197   0.89778   0.00000  Uiso   1.00
H184   H     0.39423   0.45098   1.08891   0.00000  Uiso   1.00
H185   H     0.29762   0.39544   1.08774   0.00000  Uiso   1.00
H186   H     0.34108   0.41634   1.13297   0.00000  Uiso   1.00
C187   C     0.14827   0.45730   0.04939   0.00000  Uiso   1.00
C188   C     0.12584   0.46829   0.02484   0.00000  Uiso   1.00
C189   C     0.18794   0.47689   0.04563   0.00000  Uiso   1.00
C190   C     0.23454   0.46808   0.04155   0.00000  Uiso   1.00
C191   C     0.24368   0.44975   1.00976   0.00000  Uiso   1.00
C192   C     0.13375   0.42843   0.08072   0.00000  Uiso   1.00
C193   C     0.09743   0.41080   0.08731   0.00000  Uiso   1.00
C194   C     0.08945   0.45088   0.03245   0.00000  Uiso   1.00
H195   H     0.15069   0.41972   0.10043   0.00000  Uiso   1.00
H196   H     0.08647   0.38860   0.11162   0.00000  Uiso   1.00
H197   H     0.04744   0.40825   0.07020   0.00000  Uiso   1.00
H198   H     0.13703   0.49090   0.00194   0.00000  Uiso   1.00
H199   H     0.20327   0.48397   0.09247   0.00000  Uiso   1.00
C200   C     0.27951   0.43459   1.09312   0.00000  Uiso   1.00
C201   C     0.28095   0.45588   0.03830   0.00000  Uiso   1.00
H202   H     0.25357   0.49360   0.03369   0.00000  Uiso   1.00
H203   H     0.22243   0.42425   1.01101   0.00000  Uiso   1.00
H204   H     0.24411   0.45740   0.96151   0.00000  Uiso   1.00
H205   H     0.23738   0.46290   0.09093   0.00000  Uiso   1.00
H206   H     0.19501   0.49862   0.01833   0.00000  Uiso   1.00
H207   H     0.27032   0.43978   1.12878   0.00000  Uiso   1.00
H208   H     0.25938   0.40961   1.08096   0.00000  Uiso   1.00
N209   N     0.31572   0.44094   1.11765   0.00000  Uiso   1.00
N210   N     0.19722   0.45886   0.01777   0.00000  Uiso   1.00
C211   C     0.07539   0.42202   0.06370   0.00000  Uiso   1.00
C212   C     0.86727   0.36682   0.91290   0.00000  Uiso   1.00
C213   C     0.84039   0.36970   0.87432   0.00000  Uiso   1.00
C214   C     0.84717   0.39926   0.85622   0.00000  Uiso   1.00
C215   C     0.88083   0.42614   0.87591   0.00000  Uiso   1.00
C216   C     0.90814   0.42376   0.91428   0.00000  Uiso   1.00
C217   C     0.90112   0.39390   0.93270   0.00000  Uiso   1.00
C218   C     0.85954   0.33492   0.93278   0.00000  Uiso   1.00
H219   H     0.81408   0.34904   0.85878   0.00000  Uiso   1.00
H220   H     0.82627   0.40140   0.82700   0.00000  Uiso   1.00
H221   H     0.88553   0.44883   0.86118   0.00000  Uiso   1.00
H222   H     0.92170   0.39164   0.96300   0.00000  Uiso   1.00
H223   H     0.85296   0.32177   0.89163   0.00000  Uiso   1.00
H224   H     0.88371   0.33653   0.96180   0.00000  Uiso   1.00
C225   C     0.66041   0.13619   0.05047   0.00000  Uiso   1.00
C226   C     0.62359   0.11171   0.03924   0.00000  Uiso   1.00
C227   C     0.67203   0.16989   0.04926   0.00000  Uiso   1.00
C228   C     0.72099   0.22057   0.01919   0.00000  Uiso   1.00
C229   C     0.74834   0.23631   0.97623   0.00000  Uiso   1.00
C230   C     0.68688   0.12910   0.06301   0.00000  Uiso   1.00
C231   C     0.67691   0.09815   0.06300   0.00000  Uiso   1.00
C232   C     0.61325   0.08029   0.03965   0.00000  Uiso   1.00
H233   H     0.71534   0.14768   0.07225   0.00000  Uiso   1.00
H234   H     0.69758   0.09298   0.07211   0.00000  Uiso   1.00
H235   H     0.63352   0.05004   0.05246   0.00000  Uiso   1.00
H236   H     0.60313   0.11715   0.03067   0.00000  Uiso   1.00
H237   H     0.68592   0.17920   0.09562   0.00000  Uiso   1.00
C238   C     0.80560   0.28603   0.95357   0.00000  Uiso   1.00
C239   C     0.77603   0.27071  -0.00794   0.00000  Uiso   1.00
H240   H     0.70560   0.23183   0.01411   0.00000  Uiso   1.00
H241   H     0.76255   0.22408   0.97990   0.00000  Uiso   1.00
H242   H     0.73399   0.23464   0.92894   0.00000  Uiso   1.00
H243   H     0.73604   0.22349   0.06638   0.00000  Uiso   1.00
H244   H     0.64837   0.17207   0.03686   0.00000  Uiso   1.00
H245   H     0.82092   0.27456   0.96367   0.00000  Uiso   1.00
H246   H     0.79289   0.28324   0.90494   0.00000  Uiso   1.00
N247   N     0.82991   0.31931   0.96755   0.00000  Uiso   1.00
N248   N     0.69610   0.18729   0.00475   0.00000  Uiso   1.00
C249   C     0.64040   0.07386   0.05153   0.00000  Uiso   1.00
C250   C     0.86250   0.55213   0.92641   0.00000  Uiso   1.00
C251   C     0.87265   0.57789   0.88631   0.00000  Uiso   1.00
C252   C     0.90694   0.59471   0.87025   0.00000  Uiso   1.00
C253   C     0.93122   0.58575   0.89325   0.00000  Uiso   1.00
C254   C     0.92134   0.55974   0.93254   0.00000  Uiso   1.00
C255   C     0.88705   0.54323   0.94958   0.00000  Uiso   1.00
C256   C     0.82469   0.53279   0.94031   0.00000  Uiso   1.00
H257   H     0.85375   0.58460   0.86668   0.00000  Uiso   1.00
H258   H     0.91447   0.61438   0.83896   0.00000  Uiso   1.00
H259   H     0.95742   0.59874   0.87930   0.00000  Uiso   1.00
H260   H     0.87888   0.52274   0.97888   0.00000  Uiso   1.00
H261   H     0.80591   0.52102   0.89790   0.00000  Uiso   1.00
H262   H     0.82170   0.51450   0.97533   0.00000  Uiso   1.00
C263   C     0.67378   0.57620  -0.03402   0.00000  Uiso   1.00
C264   C     0.63611   0.56172  -0.04064   0.00000  Uiso   1.00
C265   C     0.69241   0.58756  -0.08808   0.00000  Uiso   1.00
C266   C     0.74731   0.59102  -0.09562   0.00000  Uiso   1.00
C267   C     0.76334   0.57160   0.90565   0.00000  Uiso   1.00
C268   C     0.69426   0.57954   0.02408   0.00000  Uiso   1.00
C269   C     0.67738   0.56799   0.07473   0.00000  Uiso   1.00
C270   C     0.61904   0.54954   0.01025   0.00000  Uiso   1.00
H271   H     0.72329   0.59079   0.03001   0.00000  Uiso   1.00
H272   H     0.69340   0.57089   0.11938   0.00000  Uiso   1.00
H273   H     0.62715   0.54352   0.10765   0.00000  Uiso   1.00
H274   H     0.62003   0.55922  -0.08519   0.00000  Uiso   1.00
H275   H     0.71252   0.61332  -0.08448   0.00000  Uiso   1.00
C276   C     0.77810   0.53477   0.97023   0.00000  Uiso   1.00
C277   C     0.76522   0.55661  -0.03170   0.00000  Uiso   1.00
H278   H     0.75017   0.60451  -0.13900   0.00000  Uiso   1.00
H279   H     0.74632   0.55313   0.87087   0.00000  Uiso   1.00
H280   H     0.79104   0.58704   0.89454   0.00000  Uiso   1.00
H281   H     0.76255   0.60780  -0.05756   0.00000  Uiso   1.00
H282   H     0.67278   0.58349  -0.13059   0.00000  Uiso   1.00
H283   H     0.77609   0.52285   1.01521   0.00000  Uiso   1.00
H284   H     0.75979   0.51668   0.93502   0.00000  Uiso   1.00
N285   N     0.81585   0.55291   0.96119   0.00000  Uiso   1.00
N286   N     0.70892   0.57019  -0.09078   0.00000  Uiso   1.00
C287   C     0.63986   0.55256   0.06788   0.00000  Uiso   1.00
C288   C     0.34463   0.87250  -0.01768   0.00000  Uiso   1.00
C289   C     0.31863   0.87811  -0.01077   0.00000  Uiso   1.00
C290   C     0.32901   0.90815   0.00195   0.00000  Uiso   1.00
C291   C     0.36535   0.93294   0.00750   0.00000  Uiso   1.00
C292   C     0.39181   0.92793  -0.00011   0.00000  Uiso   1.00
C293   C     0.38107   0.89755   0.98714   0.00000  Uiso   1.00
C294   C     0.33347   0.84006  -0.03098   0.00000  Uiso   1.00
H295   H     0.29030   0.85927  -0.01536   0.00000  Uiso   1.00
H296   H     0.30883   0.91227   0.00753   0.00000  Uiso   1.00
H297   H     0.37270   0.95597   0.01770   0.00000  Uiso   1.00
H298   H     0.40101   0.89327   0.98085   0.00000  Uiso   1.00
H299   H     0.31410   0.83244  -0.07461   0.00000  Uiso   1.00
H300   H     0.35715   0.84014   0.96264   0.00000  Uiso   1.00
C301   C     0.15316   0.64310   1.07056   0.00000  Uiso   1.00
C302   C     0.11740   0.61650   0.06016   0.00000  Uiso   1.00
C303   C     0.16306   0.66965   0.10835   0.00000  Uiso   1.00
C304   C     0.21324   0.72261   0.08959   0.00000  Uiso   1.00
C305   C     0.22628   0.74645   0.03808   0.00000  Uiso   1.00
C306   C     0.18005   0.64456   1.04608   0.00000  Uiso   1.00
C307   C     0.17154   0.61991   1.01202   0.00000  Uiso   1.00
C308   C     0.10919   0.59128   1.02749   0.00000  Uiso   1.00
H309   H     0.20765   0.66477   1.05325   0.00000  Uiso   1.00
H310   H     0.19222   0.62132   0.99256   0.00000  Uiso   1.00
H311   H     0.13026   0.57437   0.97651   0.00000  Uiso   1.00
H312   H     0.09634   0.61515   0.07841   0.00000  Uiso   1.00
H313   H     0.18400   0.67250   1.14820   0.00000  Uiso   1.00
C314   C     0.28074   0.79347   0.00104   0.00000  Uiso   1.00
C315   C     0.26645   0.77185   0.05489   0.00000  Uiso   1.00
H316   H     0.21646   0.73434   0.13042   0.00000  Uiso   1.00
H317   H     0.22184   0.73413   0.99719   0.00000  Uiso   1.00
H318   H     0.21044   0.75741   0.02781   0.00000  Uiso   1.00
H319   H     0.23009   0.71256   0.10021   0.00000  Uiso   1.00
H320   H     0.13928   0.66415   0.12658   0.00000  Uiso   1.00
H321   H     0.27880   0.77970   0.96489   0.00000  Uiso   1.00
H322   H     0.26415   0.80348  -0.01606   0.00000  Uiso   1.00
N323   N     0.31849   0.81874   0.01984   0.00000  Uiso   1.00
N324   N     0.17493   0.69820   1.07085   0.00000  Uiso   1.00
C325   C     0.13642   0.59329   1.00324   0.00000  Uiso   1.00
C326   C     0.55562   0.87794   0.05550   0.00000  Uiso   1.00
C327   C     0.59309   0.89444   0.05653   0.00000  Uiso   1.00
C328   C     0.61356   0.92704   0.05129   0.00000  Uiso   1.00
C329   C     0.59704   0.94352   0.04639   0.00000  Uiso   1.00
C330   C     0.55975   0.92749   0.04650   0.00000  Uiso   1.00
C331   C     0.53911   0.89463   0.05103   0.00000  Uiso   1.00
C332   C     0.53381   0.84276   0.05989   0.00000  Uiso   1.00
H333   H     0.60635   0.88201   0.06044   0.00000  Uiso   1.00
H334   H     0.64232   0.93957   0.05121   0.00000  Uiso   1.00
H335   H     0.61354   0.96885   0.04368   0.00000  Uiso   1.00
H336   H     0.51031   0.88209   0.05095   0.00000  Uiso   1.00
H337   H     0.54204   0.83608   0.10629   0.00000  Uiso   1.00
H338   H     0.50433   0.83308   0.05257   0.00000  Uiso   1.00
C339   C     0.54809   0.67935   0.92996   0.00000  Uiso   1.00
C340   C     0.54465   0.65124   0.95307   0.00000  Uiso   1.00
C341   C     0.56853   0.70795   0.96844   0.00000  Uiso   1.00
C342   C     0.55628   0.74752   0.97489   0.00000  Uiso   1.00
C343   C     0.53230   0.75373   0.00027   0.00000  Uiso   1.00
C344   C     0.53215   0.68069   0.87010   0.00000  Uiso   1.00
C345   C     0.51286   0.65428   0.83381   0.00000  Uiso   1.00
C346   C     0.52513   0.62455   0.91676   0.00000  Uiso   1.00
H347   H     0.53474   0.70224   0.85160   0.00000  Uiso   1.00
H348   H     0.50062   0.65548   0.78767   0.00000  Uiso   1.00
H349   H     0.49402   0.60606   0.82807   0.00000  Uiso   1.00
H350   H     0.55685   0.65009   0.99933   0.00000  Uiso   1.00
H351   H     0.58926   0.72776   0.94366   0.00000  Uiso   1.00
C352   C     0.52639   0.79693   0.02440   0.00000  Uiso   1.00
C353   C     0.54548   0.78823   0.99140   0.00000  Uiso   1.00
H354   H     0.58458   0.76207   0.99962   0.00000  Uiso   1.00
H355   H     0.50384   0.73915  -0.02344   0.00000  Uiso   1.00
H356   H     0.53352   0.74752   0.04932   0.00000  Uiso   1.00
H357   H     0.55550   0.75397   0.92592   0.00000  Uiso   1.00
H358   H     0.58315   0.70443   1.01168   0.00000  Uiso   1.00
H359   H     0.49685   0.78322   0.00646   0.00000  Uiso   1.00
H360   H     0.53120   0.79136   0.07335   0.00000  Uiso   1.00
N361   N     0.54115   0.83035   0.01445   0.00000  Uiso   1.00
N362   N     0.54298   0.71424   0.98233   0.00000  Uiso   1.00
C363   C     0.50931   0.62633   0.85691   0.00000  Uiso   1.00
C364   C     0.45653   0.33119   0.07058   0.00000  Uiso   1.00
C365   C     0.47213   0.32953   0.13054   0.00000  Uiso   1.00
C366   C     0.49314   0.35621   0.16616   0.00000  Uiso   1.00
C367   C     0.49910   0.38485   0.14214   0.00000  Uiso   1.00
C368   C     0.48375   0.38701   0.08218   0.00000  Uiso   1.00
C369   C     0.46223   0.35998   0.04670   0.00000  Uiso   1.00
C370   C     0.43386   0.30225   0.03276   0.00000  Uiso   1.00
H371   H     0.46760   0.30747   0.14991   0.00000  Uiso   1.00
H372   H     0.50499   0.35473   0.21245   0.00000  Uiso   1.00
H373   H     0.51564   0.40528   0.17048   0.00000  Uiso   1.00
H374   H     0.45025   0.36138   0.00043   0.00000  Uiso   1.00
H375   H     0.41232   0.28331   0.05747   0.00000  Uiso   1.00
H376   H     0.41986   0.30657  -0.01035   0.00000  Uiso   1.00
C377   C     0.46201   0.13718   0.96831   0.00000  Uiso   1.00
C378   C     0.47304   0.11619   0.98387   0.00000  Uiso   1.00
C379   C     0.48668   0.17064   0.98841   0.00000  Uiso   1.00
C380   C     0.48115   0.21254   1.00745   0.00000  Uiso   1.00
C381   C     0.46058   0.22086   0.03770   0.00000  Uiso   1.00
C382   C     0.42863   0.12721   0.93027   0.00000  Uiso   1.00
C383   C     0.40640   0.09663   0.90878   0.00000  Uiso   1.00
C384   C     0.45114   0.08567   0.96103   0.00000  Uiso   1.00
H385   H     0.41989   0.14318   0.91718   0.00000  Uiso   1.00
H386   H     0.38065   0.08907   0.87968   0.00000  Uiso   1.00
H387   H     0.40027   0.05240   0.90636   0.00000  Uiso   1.00
H388   H     0.49928   0.12400   1.01158   0.00000  Uiso   1.00
H389   H     0.49633   0.18540   0.94759   0.00000  Uiso   1.00
C390   C     0.44694   0.26211   0.04008   0.00000  Uiso   1.00
C391   C     0.47045   0.25402   1.01884   0.00000  Uiso   1.00
H392   H     0.51050   0.22691   1.02697   0.00000  Uiso   1.00
H393   H     0.43100   0.20394   0.02361   0.00000  Uiso   1.00
H394   H     0.46769   0.21946   0.08766   0.00000  Uiso   1.00
H395   H     0.47729   0.21776   0.95806   0.00000  Uiso   1.00
H396   H     0.51077   0.17425   1.02134   0.00000  Uiso   1.00
H397   H     0.41804   0.24480   0.02164   0.00000  Uiso   1.00
H398   H     0.45131   0.26134   0.09031   0.00000  Uiso   1.00
N399   N     0.45723   0.29362   0.01805   0.00000  Uiso   1.00
N400   N     0.46718   0.17918   1.01687   0.00000  Uiso   1.00
C401   C     0.41763   0.07594   0.92388   0.00000  Uiso   1.00
loop_
_geom_bond_atom_site_label_1
_geom_bond_atom_site_label_2
_geom_bond_distance
_geom_bond_site_symmetry_2
_ccdc_geom_bond_type
Y0     O2      2.276   .     S
Y0     O6      2.265   .     S
Y0     O9      2.253   .     S
Y0     O10     2.289   .     S
Y0     O11     2.254   .     S
Y0     O3      2.268   1_554 S
Y0     O7      2.256   1_554 S
Y1     O3      2.255   .     S
Y1     O5      2.289   .     S
Y1     O8      2.251   .     S
Y1     O13     2.268   .     S
Y1     O15     2.266   .     S
Y1     O9      2.267   1_556 S
Y1     O16     2.255   1_556 S
O2     C12     1.285   1_554 A
O3     C14     1.373   .     S
O3     Y0      2.268   1_556 S
C4     O15     1.261   .     A
C4     O16     1.258   1_556 A
C4     C368    1.476   1_556 S
O5     C14     1.213   .     D
O6     C17     1.261   .     A
O7     Y0      2.256   1_556 S
O7     C17     1.259   1_556 A
O8     C12     1.282   .     A
O9     C19     1.372   .     S
O9     Y1      2.267   1_554 S
O10    C19     1.213   .     D
O11    C18     1.282   .     A
C12    O2      1.285   1_556 A
C12    C270    1.470   1_556 S
O13    C18     1.284   1_556 A
C14    C80     1.483   .     S
O16    Y1      2.255   1_554 S
O16    C4      1.258   1_554 A
C17    O7      1.259   1_554 A
C17    C346    1.476   1_554 S
C18    O13     1.284   1_554 A
C18    C178    1.469   1_554 S
C19    C64     1.481   .     S
Y20    O26     2.257   .     S
Y20    O30     2.268   .     S
Y20    O31     2.268   .     S
Y20    O22     2.257   1_655 S
Y20    O23     2.261   1_554 S
Y20    O27     2.257   1_554 S
Y20    O29     2.246   1_655 S
Y21    O25     2.274   .     S
Y21    O28     2.262   .     S
Y21    O35     2.255   .     S
Y21    O23     2.247   1_455 S
Y21    O29     2.263   1_556 S
Y21    O33     2.238   1_455 S
Y21    O36     2.259   1_556 S
O22    Y20     2.257   1_455 S
O22    C32     1.284   1_554 A
O23    Y20     2.261   1_556 S
O23    Y21     2.247   1_655 S
O23    C34     1.370   1_655 S
C24    O35     1.259   .     A
C24    O36     1.261   1_556 A
C24    C194    1.473   1_556 S
O25    C34     1.213   .     D
O26    C37     1.261   .     A
O27    Y20     2.257   1_556 S
O27    C37     1.260   1_556 A
O28    C32     1.284   .     A
O29    C39     1.371   .     S
O29    Y20     2.246   1_455 S
O29    Y21     2.263   1_554 S
O30    C39     1.211   1_655 D
O31    C38     1.286   .     A
C32    C308    1.470   .     S
C32    O22     1.284   1_556 A
O33    Y21     2.238   1_655 S
O33    C38     1.281   1_556 A
C34    C102    1.463   .     S
C34    O23     1.370   1_455 S
O36    Y21     2.259   1_554 S
O36    C24     1.261   1_554 A
C37    O27     1.260   1_554 A
C37    C254    1.474   1_554 S
C38    O33     1.281   1_554 A
C38    C216    1.475   1_554 S
C39    C118    1.462   .     S
C39    O30     1.211   1_455 D
Y40    O46     2.254   .     S
Y40    O50     2.271   .     S
Y40    O51     2.255   .     S
Y40    O42     2.270   1_545 S
Y40    O43     2.263   1_556 S
Y40    O47     2.253   1_556 S
Y40    O49     2.252   1_545 S
Y41    O45     2.276   .     S
Y41    O48     2.255   .     S
Y41    O55     2.267   .     S
Y41    O43     2.251   1_565 S
Y41    O49     2.256   1_554 S
Y41    O53     2.272   1_565 S
Y41    O56     2.255   1_554 S
O42    Y40     2.270   1_565 S
O42    C52     1.283   1_556 A
O43    C54     1.367   .     S
O43    Y40     2.263   1_554 S
O43    Y41     2.251   1_545 S
C44    O55     1.261   .     A
C44    C330    1.473   .     S
C44    O56     1.258   1_554 A
O45    C54     1.212   1_565 D
O46    C57     1.258   .     A
O47    Y40     2.253   1_554 S
O47    C57     1.260   1_554 A
O48    C52     1.287   .     A
O49    Y40     2.252   1_565 S
O49    Y41     2.256   1_556 S
O49    C59     1.368   1_565 S
O50    C59     1.210   .     D
O51    C58     1.283   .     A
C52    C292    1.484   .     S
C52    O42     1.283   1_554 A
O53    Y41     2.272   1_545 S
O53    C58     1.285   1_554 A
C54    O45     1.212   1_545 D
C54    C140    1.471   1_545 S
O56    Y41     2.255   1_556 S
O56    C44     1.258   1_556 A
C57    C384    1.468   .     S
C57    O47     1.260   1_556 A
C58    O53     1.285   1_556 A
C58    C232    1.484   1_556 S
C59    C156    1.465   .     S
C59    O49     1.368   1_545 S
C60    C61     1.408   .     A
C60    C65     1.411   .     A
C60    C66     1.516   .     S
C61    C62     1.396   .     A
C61    H67     1.082   .     S
C62    C63     1.395   .     A
C62    H68     1.083   .     S
C63    C64     1.404   .     A
C63    H69     1.082   .     S
C64    C65     1.408   .     A
C65    H70     1.084   .     S
C66    H71     1.113   .     S
C66    H72     1.110   .     S
C66    N95     1.472   .     S
C73    C74     1.412   .     A
C73    C75     1.517   .     S
C73    C78     1.408   .     A
C74    C80     1.409   .     A
C74    H84     1.084   .     S
C75    H85     1.113   .     S
C75    H92     1.110   .     S
C75    N96     1.472   .     S
C76    C77     1.531   .     S
C76    H88     1.113   .     S
C76    H91     1.113   .     S
C76    N96     1.468   .     S
C77    C87     1.531   .     S
C77    H89     1.112   .     S
C77    H90     1.112   .     S
C78    C79     1.395   .     A
C78    H81     1.082   .     S
C79    H82     1.083   .     S
C79    C97     1.396   .     A
C80    C97     1.404   .     A
H83    C97     1.082   .     S
C86    C87     1.528   .     S
C86    H93     1.112   .     S
C86    H94     1.112   .     S
C86    N95     1.465   .     S
C98    C103    1.403   .     A
C98    C104    1.498   .     S
C98    C99     1.404   1_455 A
C99    C100    1.397   .     A
C99    H105    1.083   .     S
C99    C98     1.404   1_655 A
C100   C101    1.397   .     A
C100   H106    1.082   .     S
C101   H107    1.081   .     S
C101   C102    1.401   1_655 A
C102   C103    1.399   .     A
C102   C101    1.401   1_455 A
C103   H108    1.084   .     S
C104   H109    1.112   .     S
C104   H110    1.113   .     S
C104   N133    1.461   .     S
C111   C112    1.403   .     A
C111   C113    1.499   .     S
C111   C116    1.404   1_655 A
C112   H122    1.084   .     S
C112   C118    1.400   1_655 A
C113   H123    1.112   .     S
C113   H130    1.113   .     S
C113   N134    1.460   .     S
C114   H126    1.114   .     S
C114   H129    1.114   .     S
C114   N134    1.461   .     S
C114   C115    1.519   1_655 S
C115   H127    1.112   .     S
C115   H128    1.112   .     S
C115   C114    1.519   1_455 S
C115   C125    1.521   1_455 S
C116   C117    1.397   .     A
C116   H119    1.083   .     S
C116   C111    1.404   1_455 A
C117   H120    1.082   .     S
C117   C135    1.396   .     A
C118   C135    1.399   .     A
C118   C112    1.400   1_455 A
H121   C135    1.080   .     S
C124   H131    1.113   .     S
C124   H132    1.113   .     S
C124   N133    1.458   .     S
C124   C125    1.517   1_455 S
C125   C115    1.521   1_655 S
C125   C124    1.517   1_655 S
C136   C137    1.405   .     A
C136   C141    1.405   .     A
C136   C142    1.504   .     S
C137   C138    1.396   .     A
C137   H143    1.083   .     S
C138   C139    1.396   .     A
C138   H144    1.083   .     S
C139   C140    1.403   .     A
C139   H145    1.079   .     S
C140   C141    1.403   .     A
C140   C54     1.471   1_565 S
C141   H146    1.083   .     S
C142   H147    1.111   .     S
C142   H148    1.113   .     S
C142   N171    1.464   .     S
C149   C150    1.404   .     A
C149   C151    1.499   .     S
C149   C154    1.405   .     A
C150   C156    1.403   .     A
C150   H160    1.085   .     S
C151   H161    1.113   .     S
C151   H168    1.113   .     S
C151   N172    1.462   .     S
C152   H164    1.113   .     S
C152   H167    1.113   .     S
C152   N172    1.459   .     S
C152   C153    1.524   1_545 S
C153   H165    1.113   .     S
C153   H166    1.113   .     S
C153   C152    1.524   1_565 S
C153   C163    1.525   1_565 S
C154   C155    1.396   .     A
C154   H157    1.084   .     S
C155   H158    1.082   .     S
C155   C173    1.395   .     A
C156   C173    1.402   .     A
H159   C173    1.083   .     S
C162   H169    1.113   .     S
C162   H170    1.112   .     S
C162   N171    1.461   .     S
C162   C163    1.521   1_565 S
C163   C153    1.525   1_545 S
C163   C162    1.521   1_545 S
C174   C175    1.404   .     A
C174   C179    1.406   .     A
C174   C180    1.504   .     S
C175   C176    1.396   .     A
C175   H181    1.083   .     S
C176   C177    1.396   .     A
C176   H182    1.082   .     S
C177   C178    1.403   .     A
C177   H183    1.083   .     S
C178   C179    1.403   .     A
C178   C18     1.469   1_556 S
C179   H184    1.084   .     S
C180   H185    1.112   .     S
C180   H186    1.111   .     S
C180   N209    1.470   .     S
C187   C188    1.406   .     A
C187   C189    1.505   .     S
C187   C192    1.404   .     A
C188   C194    1.406   .     A
C188   H198    1.083   .     S
C189   H199    1.114   .     S
C189   H206    1.112   .     S
C189   N210    1.467   .     S
C190   H202    1.113   .     S
C190   H205    1.111   .     S
C190   N210    1.464   .     S
C190   C191    1.529   1_554 S
C191   H203    1.113   .     S
C191   H204    1.112   .     S
C191   C190    1.529   1_556 S
C191   C201    1.533   1_556 S
C192   C193    1.396   .     A
C192   H195    1.083   .     S
C193   H196    1.082   .     S
C193   C211    1.396   .     A
C194   C211    1.404   .     A
C194   C24     1.473   1_554 S
H197   C211    1.084   .     S
C200   H207    1.108   .     S
C200   H208    1.111   .     S
C200   N209    1.468   .     S
C200   C201    1.529   1_556 S
C201   C191    1.533   1_554 S
C201   C200    1.529   1_554 S
C212   C213    1.404   .     A
C212   C217    1.403   .     A
C212   C218    1.501   .     S
C213   C214    1.395   .     A
C213   H219    1.083   .     S
C214   C215    1.395   .     A
C214   H220    1.082   .     S
C215   C216    1.405   .     A
C215   H221    1.083   .     S
C216   C217    1.407   .     A
C216   C38     1.475   1_556 S
C217   H222    1.084   .     S
C218   H223    1.114   .     S
C218   H224    1.112   .     S
C218   N247    1.466   .     S
C225   C226    1.407   .     A
C225   C227    1.505   .     S
C225   C230    1.403   .     A
C226   C232    1.411   .     A
C226   H236    1.083   .     S
C227   H237    1.113   .     S
C227   H244    1.111   .     S
C227   N248    1.466   .     S
C228   H240    1.112   .     S
C228   H243    1.114   .     S
C228   N248    1.464   .     S
C228   C229    1.525   1_554 S
C229   H241    1.112   .     S
C229   H242    1.112   .     S
C229   C228    1.525   1_556 S
C229   C239    1.526   1_556 S
C230   C231    1.394   .     A
C230   H233    1.084   .     S
C231   H234    1.082   .     S
C231   C249    1.396   .     A
C232   C249    1.408   .     A
C232   C58     1.484   1_554 S
H235   C249    1.083   .     S
C238   H245    1.113   .     S
C238   H246    1.113   .     S
C238   N247    1.460   .     S
C238   C239    1.522   1_556 S
C239   C229    1.526   1_554 S
C239   C238    1.522   1_554 S
C250   C251    1.404   .     A
C250   C255    1.405   .     A
C250   C256    1.505   .     S
C251   C252    1.396   .     A
C251   H257    1.084   .     S
C252   C253    1.396   .     A
C252   H258    1.082   .     S
C253   C254    1.404   .     A
C253   H259    1.083   .     S
C254   C255    1.406   .     A
C254   C37     1.474   1_556 S
C255   H260    1.083   .     S
C256   H261    1.112   .     S
C256   H262    1.113   .     S
C256   N285    1.464   .     S
C263   C264    1.408   .     A
C263   C265    1.503   .     S
C263   C268    1.404   .     A
C264   C270    1.404   .     A
C264   H274    1.084   .     S
C265   H275    1.114   .     S
C265   H282    1.111   .     S
C265   N286    1.467   .     S
C266   H278    1.112   .     S
C266   H281    1.114   .     S
C266   N286    1.465   .     S
C266   C267    1.526   1_554 S
C267   H279    1.112   .     S
C267   H280    1.111   .     S
C267   C266    1.526   1_556 S
C267   C277    1.531   1_556 S
C268   C269    1.394   .     A
C268   H271    1.083   .     S
C269   H272    1.082   .     S
C269   C287    1.395   .     A
C270   C287    1.404   .     A
C270   C12     1.470   1_554 S
H273   C287    1.083   .     S
C276   H283    1.111   .     S
C276   H284    1.113   .     S
C276   N285    1.466   .     S
C276   C277    1.524   1_556 S
C277   C267    1.531   1_554 S
C277   C276    1.524   1_554 S
C288   C289    1.404   .     A
C288   C294    1.505   .     S
C288   C293    1.405   1_554 A
C289   C290    1.396   .     A
C289   H295    1.083   .     S
C290   C291    1.398   .     A
C290   H296    1.083   .     S
C291   C292    1.408   .     A
C291   H297    1.082   .     S
C292   C293    1.407   1_554 A
C293   H298    1.083   .     S
C293   C288    1.405   1_556 A
C293   C292    1.407   1_556 A
C294   H299    1.114   .     S
C294   N323    1.469   .     S
C294   H300    1.111   1_554 S
H300   C294    1.111   1_556 S
C301   C306    1.406   .     A
C301   C302    1.411   1_556 A
C301   C303    1.506   1_556 S
C302   H312    1.085   .     S
C302   C301    1.411   1_554 A
C302   C308    1.405   1_554 A
C303   H320    1.110   .     S
C303   C301    1.506   1_554 S
C303   H313    1.114   1_554 S
C303   N324    1.467   1_554 S
C304   C305    1.523   .     S
C304   H316    1.112   .     S
C304   H319    1.113   .     S
C304   N324    1.466   1_554 S
C305   C315    1.527   .     S
C305   H318    1.112   .     S
C305   H317    1.112   1_554 S
C306   C307    1.395   .     A
C306   H309    1.082   .     S
C307   H310    1.083   .     S
C307   C325    1.393   .     A
C308   C325    1.404   .     A
C308   C302    1.405   1_556 A
H311   C325    1.085   .     S
H313   C303    1.114   1_556 S
C314   C315    1.523   .     S
C314   H322    1.112   .     S
C314   N323    1.462   .     S
C314   H321    1.113   1_554 S
H317   C305    1.112   1_556 S
H321   C314    1.113   1_556 S
N324   C303    1.467   1_556 S
N324   C304    1.466   1_556 S
C326   C327    1.405   .     A
C326   C331    1.406   .     A
C326   C332    1.504   .     S
C327   C328    1.395   .     A
C327   H333    1.083   .     S
C328   C329    1.395   .     A
C328   H334    1.082   .     S
C329   C330    1.404   .     A
C329   H335    1.082   .     S
C330   C331    1.405   .     A
C331   H336    1.083   .     S
C332   H337    1.113   .     S
C332   H338    1.113   .     S
C332   N361    1.465   .     S
C339   C340    1.406   .     A
C339   C341    1.502   .     S
C339   C344    1.403   .     A
C340   C346    1.406   .     A
C340   H350    1.084   .     S
C341   H351    1.114   .     S
C341   H358    1.111   .     S
C341   N362    1.467   .     S
C342   H354    1.114   .     S
C342   H357    1.113   .     S
C342   N362    1.464   .     S
C342   C343    1.525   1_556 S
C343   H355    1.112   .     S
C343   H356    1.112   .     S
C343   C342    1.525   1_554 S
C343   C353    1.525   1_554 S
C344   C345    1.396   .     A
C344   H347    1.083   .     S
C345   H348    1.082   .     S
C345   C363    1.397   .     A
C346   C363    1.406   .     A
C346   C17     1.476   1_556 S
H349   C363    1.083   .     S
C352   H359    1.111   .     S
C352   H360    1.113   .     S
C352   N361    1.462   .     S
C352   C353    1.522   1_554 S
C353   C343    1.525   1_556 S
C353   C352    1.522   1_556 S
C364   C365    1.403   .     A
C364   C369    1.406   .     A
C364   C370    1.503   .     S
C365   C366    1.395   .     A
C365   H371    1.082   .     S
C366   C367    1.396   .     A
C366   H372    1.083   .     S
C367   C368    1.405   .     A
C367   H373    1.082   .     S
C368   C369    1.406   .     A
C368   C4      1.476   1_554 S
C369   H374    1.083   .     S
C370   H375    1.114   .     S
C370   H376    1.111   .     S
C370   N399    1.467   .     S
C377   C378    1.404   .     A
C377   C379    1.504   .     S
C377   C382    1.404   .     A
C378   C384    1.405   .     A
C378   H388    1.084   .     S
C379   H389    1.113   .     S
C379   H396    1.112   .     S
C379   N400    1.467   .     S
C380   H392    1.113   .     S
C380   H395    1.114   .     S
C380   N400    1.464   .     S
C380   C381    1.526   1_556 S
C381   H393    1.112   .     S
C381   H394    1.111   .     S
C381   C380    1.526   1_554 S
C381   C391    1.528   1_554 S
C382   C383    1.397   .     A
C382   H385    1.082   .     S
C383   H386    1.082   .     S
C383   C401    1.396   .     A
C384   C401    1.402   .     A
H387   C401    1.083   .     S
C390   H397    1.112   .     S
C390   H398    1.111   .     S
C390   N399    1.463   .     S
C390   C391    1.522   1_554 S
C391   C381    1.528   1_556 S
C391   C390    1.522   1_556 S
