data_kag+N139+E161
_audit_creation_date              2025-01-21
_audit_creation_method            'Materials Studio'
_symmetry_space_group_name_H-M    'P1'
_symmetry_Int_Tables_number       1
_symmetry_cell_setting            triclinic
loop_
_symmetry_equiv_pos_as_xyz
  x,y,z
_cell_length_a                    50.7272
_cell_length_b                    44.1445
_cell_length_c                    27.7805
_cell_angle_alpha                 90.2010
_cell_angle_beta                  89.3170
_cell_angle_gamma                 121.0670
loop_
_atom_site_label
_atom_site_type_symbol
_atom_site_fract_x
_atom_site_fract_y
_atom_site_fract_z
_atom_site_U_iso_or_equiv
_atom_site_adp_type
_atom_site_occupancy
C0     C     0.51623   0.49886   0.83091   0.00000  Uiso   1.00
Sm1    Sm    0.48056   0.50393   0.07669   0.00000  Uiso   1.00
Sm2    Sm    0.52131   0.49711   0.92472   0.00000  Uiso   1.00
C3     C     0.49579   0.45339   0.02359   0.00000  Uiso   1.00
C4     C     0.56447   0.48568   0.95304   0.00000  Uiso   1.00
O5     O     0.50889   0.52178   0.14300   0.00000  Uiso   1.00
O6     O     0.45986   0.48427   0.14927   0.00000  Uiso   1.00
O7     O     0.51136   0.54102   0.93551   0.00000  Uiso   1.00
O8     O     0.51150   0.53243   0.01254   0.00000  Uiso   1.00
O9     O     0.43955   0.48877   1.03222   0.00000  Uiso   1.00
O10    O     0.45794   0.53562   0.07680   0.00000  Uiso   1.00
O11    O     0.49292   0.47982   0.85842   0.00000  Uiso   1.00
O12    O     0.54197   0.51730   0.85240   0.00000  Uiso   1.00
O13    O     0.49102   0.46025   0.06624   0.00000  Uiso   1.00
O14    O     0.49057   0.46849   0.98909   0.00000  Uiso   1.00
O15    O     0.56246   0.51177  -0.03130   0.00000  Uiso   1.00
O16    O     0.54380   0.46540   0.92302   0.00000  Uiso   1.00
C17    C     0.48562   0.50283   0.17064   0.00000  Uiso   1.00
C18    C     0.50667   0.54790   0.97812   0.00000  Uiso   1.00
C19    C     0.43750   0.51510   0.04660   0.00000  Uiso   1.00
C20    C     1.02066   0.50153   0.16975   0.00000  Uiso   1.00
Sm21   Sm    0.97868   0.50486   0.92575   0.00000  Uiso   1.00
Sm22   Sm    0.02712   0.50214   0.07530   0.00000  Uiso   1.00
C23    C     0.04178   0.54711   0.97680   0.00000  Uiso   1.00
C24    C     0.08040   0.51013   0.04750   0.00000  Uiso   1.00
O25    O     0.98739   0.48317   0.85896   0.00000  Uiso   1.00
O26    O    -0.02027   0.52687   0.85311   0.00000  Uiso   1.00
O27    O     0.97642   0.46106   0.06531   0.00000  Uiso   1.00
O28    O     0.98172   0.47447   0.98920   0.00000  Uiso   1.00
O29    O     0.95272   0.52387  -0.03026   0.00000  Uiso   1.00
O30    O     0.92758   0.47839   0.92393   0.00000  Uiso   1.00
O31    O     0.01757   0.52275   0.14228   0.00000  Uiso   1.00
O32    O     1.02678   0.48023   0.14784   0.00000  Uiso   1.00
O33    O     0.02991   0.54329   0.93538   0.00000  Uiso   1.00
O34    O     0.02376   0.53294   0.01272   0.00000  Uiso   1.00
O35    O     0.05454   0.48505   1.03192   0.00000  Uiso   1.00
O36    O     0.07843   0.53144   0.07663   0.00000  Uiso   1.00
C37    C    -0.01489   0.50491   0.83137   0.00000  Uiso   1.00
C38    C     0.96399   0.45748   0.02439   0.00000  Uiso   1.00
C39    C     0.92653   0.49997   0.95355   0.00000  Uiso   1.00
C40    C     0.48737  -0.01661   0.16738   0.00000  Uiso   1.00
Sm41   Sm    0.52232   0.02721   0.92169   0.00000  Uiso   1.00
Sm42   Sm    0.48052   0.97644   0.07343   0.00000  Uiso   1.00
C43    C     0.50184   0.95735   0.97418   0.00000  Uiso   1.00
C44    C     0.43085   0.91788   0.04680   0.00000  Uiso   1.00
O45    O     0.49512   0.01729   0.85496   0.00000  Uiso   1.00
O46    O     0.54159   1.02734   0.84943   0.00000  Uiso   1.00
O47    O     0.49736   0.03443   0.06317   0.00000  Uiso   1.00
O48    O     0.49316   0.02417   0.98600   0.00000  Uiso   1.00
O49    O     0.56480   0.05620  -0.03467   0.00000  Uiso   1.00
O50    O     0.55085   0.08585   0.92142   0.00000  Uiso   1.00
O51    O     0.50867   0.98603   0.13916   0.00000  Uiso   1.00
O52    O     0.46264  -0.02299   0.14650   0.00000  Uiso   1.00
O53    O     0.50603   0.96924   0.93141   0.00000  Uiso   1.00
O54    O     0.50869   0.97955   0.00802   0.00000  Uiso   1.00
O55    O     0.43643   0.94847   1.03381   0.00000  Uiso   1.00
O56    O     0.45147   0.91768   0.07274   0.00000  Uiso   1.00
C57    C     0.51706   1.02074   0.82760   0.00000  Uiso   1.00
C58    C     0.50122   0.04630   0.02032   0.00000  Uiso   1.00
C59    C     0.57047   0.08652   0.95069   0.00000  Uiso   1.00
H60    H     0.47186   0.50001   0.77964   0.00000  Uiso   1.00
C61    C     0.48818   0.50235   0.22323   0.00000  Uiso   1.00
C62    C     0.51198   0.49968   0.24367   0.00000  Uiso   1.00
C63    C     0.51402   0.49805   0.29383   0.00000  Uiso   1.00
C64    C     0.49266   0.50065   0.32396   0.00000  Uiso   1.00
C65    C     0.46881   0.50372   0.30338   0.00000  Uiso   1.00
C66    C     0.46647   0.50394   0.25309   0.00000  Uiso   1.00
C67    C     0.53841   0.49263   0.31510   0.00000  Uiso   1.00
C68    C     0.44609   0.50697   0.33495   0.00000  Uiso   1.00
C69    C     0.51530   0.53117   0.39875   0.00000  Uiso   1.00
C70    C     0.51833   0.53159   0.44901   0.00000  Uiso   1.00
C71    C     0.50042   0.49998   0.47518   0.00000  Uiso   1.00
C72    C     0.48005   0.46850   0.45078   0.00000  Uiso   1.00
C73    C     0.47794   0.46931   0.40043   0.00000  Uiso   1.00
C74    C     0.53869   0.56280   0.47369   0.00000  Uiso   1.00
C75    C     0.54109   0.56267   0.52373   0.00000  Uiso   1.00
C76    C     0.52317   0.53135   0.55024   0.00000  Uiso   1.00
C77    C     0.50284   0.49986   0.52585   0.00000  Uiso   1.00
C78    C     0.48495   0.46824   0.55202   0.00000  Uiso   1.00
C79    C     0.46470   0.43700   0.52732   0.00000  Uiso   1.00
C80    C     0.46228   0.43713   0.47727   0.00000  Uiso   1.00
C81    C     0.52503   0.53065   0.60063   0.00000  Uiso   1.00
C82    C     0.48784   0.46874   0.60233   0.00000  Uiso   1.00
C83    C     0.50986   0.49961   0.67725   0.00000  Uiso   1.00
C84    C     0.55932   0.49780   0.66953   0.00000  Uiso   1.00
C85    C     0.53670   0.49937   0.74913   0.00000  Uiso   1.00
C86    C     0.46201   0.50374   0.68440   0.00000  Uiso   1.00
C87    C     0.48920   0.49953   0.75697   0.00000  Uiso   1.00
C88    C     0.48737   0.50057   0.70666   0.00000  Uiso   1.00
C89    C     0.53469   0.49896   0.69882   0.00000  Uiso   1.00
C90    C     0.51391   0.49919   0.77825   0.00000  Uiso   1.00
H91    H     0.44710   0.47988   0.66263   0.00000  Uiso   1.00
N92    N     0.49531   0.50036   0.37555   0.00000  Uiso   1.00
N93    N     0.50751   0.49967   0.62558   0.00000  Uiso   1.00
H94    H     0.47221   0.52747   0.66075   0.00000  Uiso   1.00
H95    H     0.52840   0.49784   0.22036   0.00000  Uiso   1.00
H96    H     0.44810   0.50609   0.23706   0.00000  Uiso   1.00
H97    H     0.55209   0.48886   0.28677   0.00000  Uiso   1.00
H98    H     0.55425   0.51592   0.33711   0.00000  Uiso   1.00
H99    H     0.52733   0.46865   0.33831   0.00000  Uiso   1.00
H100   H     0.45852   0.53082   0.35791   0.00000  Uiso   1.00
H101   H     0.42895   0.50940   0.31345   0.00000  Uiso   1.00
H102   H     0.43348   0.48323   0.35831   0.00000  Uiso   1.00
O103   O     0.45831   0.43886   0.37603   0.00000  Uiso   1.00
O104   O     0.53238   0.56183   0.37275   0.00000  Uiso   1.00
H105   H     0.55282   0.58743   0.45445   0.00000  Uiso   1.00
H106   H     0.44641   0.41258   0.45943   0.00000  Uiso   1.00
H107   H     0.55702   0.58719   0.54156   0.00000  Uiso   1.00
H108   H     0.56010   0.47394   0.67958   0.00000  Uiso   1.00
H109   H     0.55531   0.49667   0.63027   0.00000  Uiso   1.00
H110   H     0.55579   0.49903   0.76572   0.00000  Uiso   1.00
H111   H     0.45060   0.41235   0.54656   0.00000  Uiso   1.00
H112   H     0.44748   0.50658   0.71213   0.00000  Uiso   1.00
O113   O     0.47085   0.43806   0.62833   0.00000  Uiso   1.00
O114   O     0.54459   0.56114   0.62501   0.00000  Uiso   1.00
H115   H     0.58201   0.52174   0.67705   0.00000  Uiso   1.00
H116   H     0.03008   0.55664   0.22394   0.00000  Uiso   1.00
C117   C    -0.01184   0.50441   0.77850   0.00000  Uiso   1.00
C118   C    -0.01816   0.47320   0.75515   0.00000  Uiso   1.00
C119   C    -0.01595   0.47209   0.70483   0.00000  Uiso   1.00
C120   C    -0.00649   0.50300   0.67751   0.00000  Uiso   1.00
C121   C     0.00012   0.53458   0.70088   0.00000  Uiso   1.00
C122   C    -0.00288   0.53495   0.75117   0.00000  Uiso   1.00
C123   C     0.97584   0.43789   0.68041   0.00000  Uiso   1.00
C124   C     0.01048   0.56781   0.67219   0.00000  Uiso   1.00
C125   C     0.97202   0.49782   0.59826   0.00000  Uiso   1.00
C126   C     0.97434   0.49852   0.54775   0.00000  Uiso   1.00
C127   C     0.00162   0.50379   0.52596   0.00000  Uiso   1.00
C128   C     0.02594   0.50797   0.55481   0.00000  Uiso   1.00
C129   C     0.02252   0.50697   0.60519   0.00000  Uiso   1.00
C130   C     0.95020   0.49428   0.51865   0.00000  Uiso   1.00
C131   C     0.95310   0.49529   0.46850   0.00000  Uiso   1.00
C132   C     0.98021   0.50051   0.44636   0.00000  Uiso   1.00
C133   C     1.00457   0.50483   0.47520   0.00000  Uiso   1.00
C134   C     0.03185   0.51011   0.45342   0.00000  Uiso   1.00
C135   C     0.05600   0.51438   0.48253   0.00000  Uiso   1.00
C136   C     0.05306   0.51325   0.53267   0.00000  Uiso   1.00
C137   C     0.98350   0.50113   0.39595   0.00000  Uiso   1.00
C138   C     0.03411   0.51062   0.40289   0.00000  Uiso   1.00
C139   C     1.01229   0.50431   0.32363   0.00000  Uiso   1.00
C140   C     0.99640   0.43931   0.32893   0.00000  Uiso   1.00
C141   C     1.00938   0.47202   0.25056   0.00000  Uiso   1.00
C142   C     0.02863   0.56897   0.31916   0.00000  Uiso   1.00
C143   C     0.02332   0.53324   0.24540   0.00000  Uiso   1.00
C144   C     0.02110   0.53475   0.29562   0.00000  Uiso   1.00
C145   C     1.00625   0.47268   0.30083   0.00000  Uiso   1.00
C146   C     1.01773   0.50214   0.22265   0.00000  Uiso   1.00
H147   H     0.04738   0.57676   0.34544   0.00000  Uiso   1.00
N148   N    -0.00401   0.50230   0.62581   0.00000  Uiso   1.00
N149   N     1.01001   0.50573   0.37534   0.00000  Uiso   1.00
H150   H     0.00793   0.56569   0.33814   0.00000  Uiso   1.00
H151   H     0.97458   0.44948   0.77616   0.00000  Uiso   1.00
H152   H     0.00224   0.55920   0.76911   0.00000  Uiso   1.00
H153   H     0.96718   0.41570   0.70658   0.00000  Uiso   1.00
H154   H     0.95752   0.43111   0.65364   0.00000  Uiso   1.00
H155   H     0.99644   0.44062   0.66176   0.00000  Uiso   1.00
H156   H    -0.00723   0.56320   0.64530   0.00000  Uiso   1.00
H157   H     0.01418   0.59014   0.69549   0.00000  Uiso   1.00
H158   H     0.03243   0.57545   0.65312   0.00000  Uiso   1.00
O159   O     0.04598   0.51101   0.63386   0.00000  Uiso   1.00
O160   O     0.94572   0.49307   0.62011   0.00000  Uiso   1.00
H161   H     0.92896   0.49013   0.53451   0.00000  Uiso   1.00
H162   H     0.07212   0.51658   0.55399   0.00000  Uiso   1.00
H163   H     0.93401   0.49190   0.44722   0.00000  Uiso   1.00
H164   H     1.01357   0.43115   0.32352   0.00000  Uiso   1.00
H165   H     0.99422   0.44246   0.36813   0.00000  Uiso   1.00
H166   H     1.00482   0.44776   0.23321   0.00000  Uiso   1.00
H167   H     0.07724   0.51854   0.46672   0.00000  Uiso   1.00
H168   H     0.03641   0.59066   0.29237   0.00000  Uiso   1.00
O169   O     0.06041   0.51537   0.38107   0.00000  Uiso   1.00
O170   O     0.95988   0.49662   0.36733   0.00000  Uiso   1.00
H171   H     0.97363   0.41798   0.31612   0.00000  Uiso   1.00
H172   H     0.54806   1.00190   0.76713   0.00000  Uiso   1.00
C173   C     0.49073  -0.01258   0.22002   0.00000  Uiso   1.00
C174   C     0.47307  -0.00198   0.24621   0.00000  Uiso   1.00
C175   C     0.47519   0.00118   0.29642   0.00000  Uiso   1.00
C176   C     0.49503  -0.00684   0.32090   0.00000  Uiso   1.00
C177   C     0.51260  -0.01797   0.29486   0.00000  Uiso   1.00
C178   C     0.51068  -0.02021   0.24443   0.00000  Uiso   1.00
C179   C     0.45624   0.01290   0.32377   0.00000  Uiso   1.00
C180   C     0.53262   0.97170   0.32098   0.00000  Uiso   1.00
C181   C     0.47615  -0.03170   0.40038   0.00000  Uiso   1.00
C182   C     0.47784   0.97053   0.45081   0.00000  Uiso   1.00
C183   C     0.50135   0.00173   0.47209   0.00000  Uiso   1.00
C184   C     0.52260   0.03014   0.44287   0.00000  Uiso   1.00
C185   C     0.52007   0.02662   0.39261   0.00000  Uiso   1.00
C186   C     0.45670   0.94242   0.48031   0.00000  Uiso   1.00
C187   C     0.45894   0.94519   0.53037   0.00000  Uiso   1.00
C188   C     0.48237   0.97614   0.55198   0.00000  Uiso   1.00
C189   C     0.50364   0.00452   0.52274   0.00000  Uiso   1.00
C190   C     0.52719   0.03571   0.54401   0.00000  Uiso   1.00
C191   C     0.54808   0.06399   0.51453   0.00000  Uiso   1.00
C192   C     0.54578   0.06125   0.46449   0.00000  Uiso   1.00
C193   C     0.48512   0.97954   0.60223   0.00000  Uiso   1.00
C194   C     0.52917   0.03778   0.59440   0.00000  Uiso   1.00
C195   C     0.51056   1.01287   0.67385   0.00000  Uiso   1.00
C196   C     0.47236   0.03421   0.67583   0.00000  Uiso   1.00
C197   C     0.49450   1.02524   0.75059   0.00000  Uiso   1.00
C198   C     0.54965   0.99357   0.67047   0.00000  Uiso   1.00
C199   C     0.53261   1.00780   0.74841   0.00000  Uiso   1.00
C200   C     0.53057   1.00498   0.69814   0.00000  Uiso   1.00
C201   C     0.49277   0.02360   0.70022   0.00000  Uiso   1.00
C202   C     0.51449   1.01763   0.77483   0.00000  Uiso   1.00
H203   H     0.56501   1.01458   0.64454   0.00000  Uiso   1.00
N204   N     0.49716  -0.00393   0.37252   0.00000  Uiso   1.00
N205   N     0.50833   1.00992   0.62227   0.00000  Uiso   1.00
H206   H     0.53431   0.96893   0.65037   0.00000  Uiso   1.00
H207   H     0.45778   0.00412   0.22737   0.00000  Uiso   1.00
H208   H     0.52410   0.97121   0.22428   0.00000  Uiso   1.00
H209   H     0.44152   0.01765   0.29946   0.00000  Uiso   1.00
H210   H     0.44098  -0.00784   0.35008   0.00000  Uiso   1.00
H211   H     0.47166   0.03778   0.34332   0.00000  Uiso   1.00
H212   H     0.51836   0.95035   0.34730   0.00000  Uiso   1.00
H213   H     0.54367   0.96178   0.29588   0.00000  Uiso   1.00
H214   H     0.55093   0.99487   0.34057   0.00000  Uiso   1.00
O215   O     0.54068   0.05394   0.36353   0.00000  Uiso   1.00
O216   O     0.45329   0.93821   0.37894   0.00000  Uiso   1.00
H217   H     0.43841   0.91816   0.46484   0.00000  Uiso   1.00
H218   H     0.56222   0.08358   0.44285   0.00000  Uiso   1.00
H219   H     0.44232   0.92299   0.55204   0.00000  Uiso   1.00
H220   H     0.47958   0.06174   0.68613   0.00000  Uiso   1.00
H221   H     0.47355   0.03335   0.63600   0.00000  Uiso   1.00
H222   H     0.48082   0.03345   0.77077   0.00000  Uiso   1.00
H223   H     0.56625   0.08833   0.53002   0.00000  Uiso   1.00
H224   H     0.56426   0.98847   0.69457   0.00000  Uiso   1.00
O225   O     0.55208   0.06784   0.61581   0.00000  Uiso   1.00
O226   O     0.46441   0.95234   0.63137   0.00000  Uiso   1.00
H227   H     0.44809   0.01624   0.68738   0.00000  Uiso   1.00
H228   H     0.09328   0.48597   0.96663   0.00000  Uiso   1.00
C229   C     0.41316   0.52101   1.02996   0.00000  Uiso   1.00
C230   C     0.40351   0.53958   0.05884   0.00000  Uiso   1.00
C231   C     0.37755   0.54118   0.04655   0.00000  Uiso   1.00
C232   C     0.36185   0.52521   1.00349   0.00000  Uiso   1.00
C233   C     0.37288   0.50857   0.97269   0.00000  Uiso   1.00
C234   C     0.39830   0.50631   0.98647   0.00000  Uiso   1.00
C235   C     0.36554   0.55782   0.08093   0.00000  Uiso   1.00
C236   C     0.35688   0.49201   0.92625   0.00000  Uiso   1.00
C237   C     0.33177   0.55029  -0.02439   0.00000  Uiso   1.00
C238   C     0.30353   0.54901  -0.02756   0.00000  Uiso   1.00
C239   C     0.27640   0.51828   0.98808   0.00000  Uiso   1.00
C240   C     0.27765   0.48889   1.00443   0.00000  Uiso   1.00
C241   C     0.30631   0.49146   1.00716   0.00000  Uiso   1.00
C242   C     0.30184   0.57793  -0.04447   0.00000  Uiso   1.00
C243   C     0.27378   0.57686  -0.04397   0.00000  Uiso   1.00
C244   C     0.24684   0.54690  -0.02641   0.00000  Uiso   1.00
C245   C     0.24808   0.51726   0.98876   0.00000  Uiso   1.00
C246   C     0.22129   0.48704   1.00640   0.00000  Uiso   1.00
C247   C     0.22257   0.45729   1.02042   0.00000  Uiso   1.00
C248   C     0.25044   0.45814   1.01918   0.00000  Uiso   1.00
C249   C     0.21881   0.54611  -0.02205   0.00000  Uiso   1.00
C250   C     0.19407   0.48779   1.01106   0.00000  Uiso   1.00
C251   C     0.16611   0.51847   1.00825   0.00000  Uiso   1.00
C252   C     0.18938   0.55000   0.08785   0.00000  Uiso   1.00
C253   C     0.13577   0.53174   0.06344   0.00000  Uiso   1.00
C254   C     0.14330   0.48645   0.93006   0.00000  Uiso   1.00
C255   C     0.11290   0.49932   0.99020   0.00000  Uiso   1.00
C256   C     0.14075   0.50182   0.97706   0.00000  Uiso   1.00
C257   C     0.16356   0.53348   0.05189   0.00000  Uiso   1.00
C258   C     0.11018   0.51408   1.03331   0.00000  Uiso   1.00
H259   H     0.14866   0.46544   0.93676   0.00000  Uiso   1.00
N260   N     0.33270   0.52216   0.99423   0.00000  Uiso   1.00
N261   N     0.19344   0.51725   0.99780   0.00000  Uiso   1.00
H262   H     0.16197   0.50760   0.90768   0.00000  Uiso   1.00
H263   H     0.41516   0.55107   0.09237   0.00000  Uiso   1.00
H264   H     0.40617   0.49247   0.96374   0.00000  Uiso   1.00
H265   H     0.37964   0.56757   0.11396   0.00000  Uiso   1.00
H266   H     0.36589   0.58056   0.06337   0.00000  Uiso   1.00
H267   H     0.34158   0.53799   0.09201   0.00000  Uiso   1.00
H268   H     0.35621   0.51222   0.90351   0.00000  Uiso   1.00
H269   H     0.36893   0.48099   0.90566   0.00000  Uiso   1.00
H270   H     0.33300   0.47013   0.93374   0.00000  Uiso   1.00
O271   O     0.30804   0.46357   1.02506   0.00000  Uiso   1.00
O272   O     0.35860   0.58031  -0.03819   0.00000  Uiso   1.00
H273   H     0.32229   0.60172  -0.05719   0.00000  Uiso   1.00
H274   H     0.25072   0.43493   1.03092   0.00000  Uiso   1.00
H275   H     0.27344   0.59989  -0.05633   0.00000  Uiso   1.00
H276   H     0.18164   0.53495   0.12219   0.00000  Uiso   1.00
H277   H     0.21040   0.55042   0.07539   0.00000  Uiso   1.00
H278   H     0.13382   0.54319   0.09691   0.00000  Uiso   1.00
H279   H     0.20218   0.43349   1.03323   0.00000  Uiso   1.00
H280   H     0.12158   0.47465   0.90951   0.00000  Uiso   1.00
O281   O     0.16823   0.45926   1.03067   0.00000  Uiso   1.00
O282   O     0.21717   0.57489  -0.03593   0.00000  Uiso   1.00
H283   H     0.19600   0.57770   0.09537   0.00000  Uiso   1.00
H284   H     0.60121   0.10058   0.03456   0.00000  Uiso   1.00
C285   C     0.93042   0.43348   0.01919   0.00000  Uiso   1.00
C286   C     0.91804   0.41837   0.97453   0.00000  Uiso   1.00
C287   C     0.88659   0.39333   0.96996   0.00000  Uiso   1.00
C288   C     0.86752   0.38140   0.01152   0.00000  Uiso   1.00
C289   C     0.87989   0.39629   0.05680   0.00000  Uiso   1.00
C290   C     0.91111   0.42251   0.06006   0.00000  Uiso   1.00
C291   C     0.87365   0.37934   0.92087   0.00000  Uiso   1.00
C292   C     0.86022   0.38333   0.10184   0.00000  Uiso   1.00
C293   C     0.83102   0.31866   1.00376   0.00000  Uiso   1.00
C294   C     0.80086   0.28959   1.00147   0.00000  Uiso   1.00
C295   C     0.77605   0.29524   0.00614   0.00000  Uiso   1.00
C296   C     0.78175   0.32976   0.01250   0.00000  Uiso   1.00
C297   C     0.81238   0.35823   0.01224   0.00000  Uiso   1.00
C298   C     0.79499   0.25513   0.99457   0.00000  Uiso   1.00
C299   C     0.76482   0.22669   0.99120   0.00000  Uiso   1.00
C300   C     0.73990   0.23206   0.99541   0.00000  Uiso   1.00
C301   C     0.74548   0.26632   0.00398   0.00000  Uiso   1.00
C302   C     0.72059   0.27179   0.00961   0.00000  Uiso   1.00
C303   C     0.72653   0.30617   0.01788   0.00000  Uiso   1.00
C304   C     0.75678   0.33487   0.01894   0.00000  Uiso   1.00
C305   C     0.70947   0.20407   0.99023   0.00000  Uiso   1.00
C306   C     0.69040   0.24266   0.00596   0.00000  Uiso   1.00
C307   C     0.65465   0.18080  -0.01322   0.00000  Uiso   1.00
C308   C     0.65396   0.20695   0.90470   0.00000  Uiso   1.00
C309   C     0.61131   0.14837   0.93310   0.00000  Uiso   1.00
C310   C     0.65414   0.15574   0.06926   0.00000  Uiso   1.00
C311   C     0.61206   0.12241   0.00924   0.00000  Uiso   1.00
C312   C     0.64001   0.15300   0.02083   0.00000  Uiso   1.00
C313   C     0.63983   0.17856   0.94285   0.00000  Uiso   1.00
C314   C     0.59804   0.11973  -0.03494   0.00000  Uiso   1.00
H315   H     0.65827   0.18013   0.08774   0.00000  Uiso   1.00
N316   N     0.83625   0.35222   0.00847   0.00000  Uiso   1.00
N317   N     0.68546   0.20980  -0.00478   0.00000  Uiso   1.00
H318   H     0.67630   0.15665   0.06505   0.00000  Uiso   1.00
H319   H     0.93302   0.42573   0.94318   0.00000  Uiso   1.00
H320   H     0.92064   0.43360   0.09488   0.00000  Uiso   1.00
H321   H     0.89126   0.39312   0.89205   0.00000  Uiso   1.00
H322   H     0.86535   0.35070   0.91864   0.00000  Uiso   1.00
H323   H     0.85422   0.38349   0.91387   0.00000  Uiso   1.00
H324   H     0.85023   0.35438   0.10598   0.00000  Uiso   1.00
H325   H     0.87370   0.39654   0.13457   0.00000  Uiso   1.00
H326   H     0.84123   0.38880   0.09979   0.00000  Uiso   1.00
O327   O     0.81844   0.39221   0.01569   0.00000  Uiso   1.00
O328   O     0.85541   0.31339   1.00127   0.00000  Uiso   1.00
H329   H     0.81366   0.25006   0.99104   0.00000  Uiso   1.00
H330   H     0.76047   0.36098   0.02497   0.00000  Uiso   1.00
H331   H     0.76111   0.20051   0.98524   0.00000  Uiso   1.00
H332   H     0.63955   0.21898   0.90046   0.00000  Uiso   1.00
H333   H     0.67774   0.22820   0.91300   0.00000  Uiso   1.00
H334   H     0.60024   0.14647   0.89912   0.00000  Uiso   1.00
H335   H     0.70783   0.31107   0.02293   0.00000  Uiso   1.00
H336   H     0.63882   0.13279   0.09267   0.00000  Uiso   1.00
O337   O     0.66582   0.24742   0.01116   0.00000  Uiso   1.00
O338   O     0.70381   0.17093   0.97891   0.00000  Uiso   1.00
H339   H     0.65486   0.19511   0.86982   0.00000  Uiso   1.00
H340   H     0.59036   0.49695   0.04055   0.00000  Uiso   1.00
C341   C     0.89726   0.49755  -0.03314   0.00000  Uiso   1.00
C342   C     0.87444   0.48768   0.93212   0.00000  Uiso   1.00
C343   C     0.84661   0.48578   0.94361   0.00000  Uiso   1.00
C344   C     0.84107   0.49281  -0.00886   0.00000  Uiso   1.00
C345   C     0.86362   0.50161   0.02663   0.00000  Uiso   1.00
C346   C     0.89184   0.50468   0.01391   0.00000  Uiso   1.00
C347   C     0.82300   0.47655   0.90509   0.00000  Uiso   1.00
C348   C     0.85735   0.50694   0.07802   0.00000  Uiso   1.00
C349   C     0.78655   0.45954   1.01166   0.00000  Uiso   1.00
C350   C     0.75770   0.45675   1.01491   0.00000  Uiso   1.00
C351   C     0.75617   0.48752   0.01007   0.00000  Uiso   1.00
C352   C     0.78346   0.52061   0.00411   0.00000  Uiso   1.00
C353   C     0.81175   0.52200   0.00058   0.00000  Uiso   1.00
C354   C     0.73034   0.42387   1.02091   0.00000  Uiso   1.00
C355   C     0.70175   0.42144   1.02042   0.00000  Uiso   1.00
C356   C     0.69991   0.45184   1.01394   0.00000  Uiso   1.00
C357   C     0.72726   0.48507   0.00955   0.00000  Uiso   1.00
C358   C     0.72575   0.51575   0.00305   0.00000  Uiso   1.00
C359   C     0.75312   0.54880  -0.00060   0.00000  Uiso   1.00
C360   C     0.78167   0.55121  -0.00008   0.00000  Uiso   1.00
C361   C     0.67143   0.44986   1.01008   0.00000  Uiso   1.00
C362   C     0.69683   0.51243  -0.00127   0.00000  Uiso   1.00
C363   C     0.64154   0.47697  -0.00903   0.00000  Uiso   1.00
C364   C     0.64437   0.45919   0.90396   0.00000  Uiso   1.00
C365   C     0.60244   0.46825   0.93348   0.00000  Uiso   1.00
C366   C     0.63916   0.49545   0.07671   0.00000  Uiso   1.00
C367   C     0.60108   0.48846   0.01407   0.00000  Uiso   1.00
C368   C     0.62684   0.48641   0.02640   0.00000  Uiso   1.00
C369   C     0.62906   0.46769   0.94418   0.00000  Uiso   1.00
C370   C     0.58921   0.47994  -0.03247   0.00000  Uiso   1.00
H371   H     0.66254   0.51944   0.07611   0.00000  Uiso   1.00
N372   N     0.81267   0.49155   0.00273   0.00000  Uiso   1.00
N373   N     0.67048   0.47979   0.00121   0.00000  Uiso   1.00
H374   H     0.64033   0.47304   0.09223   0.00000  Uiso   1.00
H375   H     0.87867   0.48230   0.89564   0.00000  Uiso   1.00
H376   H     0.90938   0.51189   0.04083   0.00000  Uiso   1.00
H377   H     0.83118   0.47290   0.86951   0.00000  Uiso   1.00
H378   H     0.80145   0.45158   0.91463   0.00000  Uiso   1.00
H379   H     0.81793   0.49809   0.90157   0.00000  Uiso   1.00
H380   H     0.83640   0.48265   0.09140   0.00000  Uiso   1.00
H381   H     0.87677   0.51236   0.10176   0.00000  Uiso   1.00
H382   H     0.85362   0.52956   0.08036   0.00000  Uiso   1.00
O383   O     0.83838   0.55382  -0.00745   0.00000  Uiso   1.00
O384   O     0.78834   0.42973   1.01515   0.00000  Uiso   1.00
H385   H     0.73087   0.39980   1.02494   0.00000  Uiso   1.00
H386   H     0.80227   0.57705  -0.00401   0.00000  Uiso   1.00
H387   H     0.68110   0.39560   1.02403   0.00000  Uiso   1.00
H388   H     0.64893   0.47727   0.87310   0.00000  Uiso   1.00
H389   H     0.66667   0.46238   0.91438   0.00000  Uiso   1.00
H390   H     0.59319   0.46179   0.89740   0.00000  Uiso   1.00
H391   H     0.75253   0.57283  -0.00491   0.00000  Uiso   1.00
H392   H     0.62426   0.50076   0.10055   0.00000  Uiso   1.00
O393   O     0.69502   0.54190  -0.01003   0.00000  Uiso   1.00
O394   O     0.64452   0.41767   1.01316   0.00000  Uiso   1.00
H395   H     0.62891   0.43153   0.89196   0.00000  Uiso   1.00
H396   H     0.07279   0.59346   0.04664   0.00000  Uiso   1.00
C397   C     0.40213   0.88546   1.03466   0.00000  Uiso   1.00
C398   C     0.40246   0.85762   1.01100   0.00000  Uiso   1.00
C399   C     0.37477   0.82642   1.00021   0.00000  Uiso   1.00
C400   C     0.34658   0.82257   1.01567   0.00000  Uiso   1.00
C401   C     0.34632   0.85047   0.04029   0.00000  Uiso   1.00
C402   C     0.37413   0.88203   0.04847   0.00000  Uiso   1.00
C403   C     0.37523   0.79760   0.97179   0.00000  Uiso   1.00
C404   C     0.31665   0.84642   0.05882   0.00000  Uiso   1.00
C405   C     0.30961   0.76151   1.03613   0.00000  Uiso   1.00
C406   C     0.28109   0.73025   0.03002   0.00000  Uiso   1.00
C407   C     0.26116   0.72913   0.99423   0.00000  Uiso   1.00
C408   C     0.27057   0.75849   0.96375   0.00000  Uiso   1.00
C409   C     0.29966   0.78882   0.97033   0.00000  Uiso   1.00
C410   C     0.27172   0.70053   0.05951   0.00000  Uiso   1.00
C411   C     0.24239   0.67059   0.05489   0.00000  Uiso   1.00
C412   C     0.22180   0.66986   0.02082   0.00000  Uiso   1.00
C413   C     0.23145   0.69895   0.98977   0.00000  Uiso   1.00
C414   C     0.21106   0.69839   0.95527   0.00000  Uiso   1.00
C415   C     0.22098   0.72740   0.92419   0.00000  Uiso   1.00
C416   C     0.25045   0.75713   0.92831   0.00000  Uiso   1.00
C417   C     0.19142   0.64130   0.01806   0.00000  Uiso   1.00
C418   C     0.18091   0.66922   0.95391   0.00000  Uiso   1.00
C419   C     0.13947   0.61439   0.98725   0.00000  Uiso   1.00
C420   C     0.14703   0.58548   0.91287   0.00000  Uiso   1.00
C421   C     0.09492   0.56628   0.94759   0.00000  Uiso   1.00
C422   C     0.13245   0.64220   0.06289   0.00000  Uiso   1.00
C423   C     0.08799   0.59205   0.02015   0.00000  Uiso   1.00
C424   C     0.11982   0.61536   0.02298   0.00000  Uiso   1.00
C425   C     0.12695   0.58882   0.95028   0.00000  Uiso   1.00
C426   C     0.07539   0.56799   0.98220   0.00000  Uiso   1.00
H427   H     0.14491   0.66931   0.04743   0.00000  Uiso   1.00
N428   N     0.31810   0.79011   1.00686   0.00000  Uiso   1.00
N429   N     0.17146   0.64183   0.98579   0.00000  Uiso   1.00
H430   H     0.14844   0.63825   0.08515   0.00000  Uiso   1.00
H431   H     0.42422   0.86048   1.00040   0.00000  Uiso   1.00
H432   H     0.37413   0.90366   0.06708   0.00000  Uiso   1.00
H433   H     0.39887   0.80557   0.95978   0.00000  Uiso   1.00
H434   H     0.36602   0.77331   0.99409   0.00000  Uiso   1.00
H435   H     0.36081   0.79153   0.93929   0.00000  Uiso   1.00
H436   H     0.30474   0.82293   0.08282   0.00000  Uiso   1.00
H437   H     0.32073   0.86991   0.07977   0.00000  Uiso   1.00
H438   H     0.30147   0.84306   0.02831   0.00000  Uiso   1.00
O439   O     0.30926   0.81771   0.94093   0.00000  Uiso   1.00
O440   O     0.32863   0.76379   0.07255   0.00000  Uiso   1.00
H441   H     0.28685   0.70051   0.08668   0.00000  Uiso   1.00
H442   H     0.25716   0.77930   0.90435   0.00000  Uiso   1.00
H443   H     0.23574   0.64834   0.07867   0.00000  Uiso   1.00
H444   H     0.14185   0.59167   0.87679   0.00000  Uiso   1.00
H445   H     0.17194   0.60341   0.91966   0.00000  Uiso   1.00
H446   H     0.08519   0.54752   0.91827   0.00000  Uiso   1.00
H447   H     0.20580   0.72749   0.89717   0.00000  Uiso   1.00
H448   H     0.11388   0.63979   0.08713   0.00000  Uiso   1.00
O449   O     0.16041   0.66877   0.92160   0.00000  Uiso   1.00
O450   O     0.18117   0.61351   0.04937   0.00000  Uiso   1.00
H451   H     0.14246   0.55804   0.91282   0.00000  Uiso   1.00
H452   H     0.47327   0.56290   0.91808   0.00000  Uiso   1.00
C453   C     0.49139   0.91965   0.98283   0.00000  Uiso   1.00
C454   C     0.49808   0.90891   0.02618   0.00000  Uiso   1.00
C455   C     0.49257   0.87447   0.03168   0.00000  Uiso   1.00
C456   C     0.48136   0.85079   0.99251   0.00000  Uiso   1.00
C457   C     0.47418   0.86126   0.94908   0.00000  Uiso   1.00
C458   C     0.47883   0.89534   0.94487   0.00000  Uiso   1.00
C459   C     0.49975   0.86345   0.07857   0.00000  Uiso   1.00
C460   C     0.46348   0.83698   0.90625   0.00000  Uiso   1.00
C461   C     0.45530   0.78729   1.00806   0.00000  Uiso   1.00
C462   C     0.45505   0.75521   1.00821   0.00000  Uiso   1.00
C463   C     0.48204   0.75549   0.99474   0.00000  Uiso   1.00
C464   C     0.50868   0.78754   0.98142   0.00000  Uiso   1.00
C465   C     0.50777   0.81876   0.98148   0.00000  Uiso   1.00
C466   C     0.42859   0.72298   1.02129   0.00000  Uiso   1.00
C467   C     0.42898   0.69149   1.02109   0.00000  Uiso   1.00
C468   C     0.45587   0.69155   1.00793   0.00000  Uiso   1.00
C469   C     0.48247   0.72370   0.99468   0.00000  Uiso   1.00
C470   C     0.50955   0.72417   0.98134   0.00000  Uiso   1.00
C471   C     0.53598   0.75632   0.96817   0.00000  Uiso   1.00
C472   C     0.53554   0.78765   0.96819   0.00000  Uiso   1.00
C473   C     0.45698   0.66030   1.00770   0.00000  Uiso   1.00
C474   C     0.50955   0.69239   0.98149   0.00000  Uiso   1.00
C475   C     0.48477   0.62934   0.99440   0.00000  Uiso   1.00
C476   C     0.51115   0.64535   0.07611   0.00000  Uiso   1.00
C477   C     0.50611   0.59533   0.02669   0.00000  Uiso   1.00
C478   C     0.45867   0.61386   0.91330   0.00000  Uiso   1.00
C479   C     0.48045   0.57938   0.94992   0.00000  Uiso   1.00
C480   C     0.47448   0.60703   0.95374   0.00000  Uiso   1.00
C481   C     0.50000   0.62278   0.03163   0.00000  Uiso   1.00
C482   C     0.49663   0.57365   0.98590   0.00000  Uiso   1.00
H483   H     0.47404   0.64086   0.89851   0.00000  Uiso   1.00
N484   N     0.48136   0.81814   0.99445   0.00000  Uiso   1.00
N485   N     0.48357   0.66130   0.99464   0.00000  Uiso   1.00
H486   H     0.43708   0.61169   0.92680   0.00000  Uiso   1.00
H487   H     0.50862   0.92779   0.05518   0.00000  Uiso   1.00
H488   H     0.47393   0.90347   0.91104   0.00000  Uiso   1.00
H489   H     0.50875   0.88506   0.10554   0.00000  Uiso   1.00
H490   H     0.47848   0.84039   0.09358   0.00000  Uiso   1.00
H491   H     0.51732   0.85594   0.07263   0.00000  Uiso   1.00
H492   H     0.44282   0.81122   0.91604   0.00000  Uiso   1.00
H493   H     0.45748   0.84837   0.87571   0.00000  Uiso   1.00
H494   H     0.48207   0.83241   0.89408   0.00000  Uiso   1.00
O495   O     0.53350   0.85011   0.96807   0.00000  Uiso   1.00
O496   O     0.42934   0.78761   1.02146   0.00000  Uiso   1.00
H497   H     0.40747   0.72192   1.03161   0.00000  Uiso   1.00
H498   H     0.55632   0.81194   0.95775   0.00000  Uiso   1.00
H499   H     0.40820   0.66714   1.03138   0.00000  Uiso   1.00
H500   H     0.53665   0.65900   0.07752   0.00000  Uiso   1.00
H501   H     0.50448   0.66564   0.07733   0.00000  Uiso   1.00
H502   H     0.51898   0.59144   0.05435   0.00000  Uiso   1.00
H503   H     0.55711   0.75740  -0.04212   0.00000  Uiso   1.00
H504   H     0.45269   0.59462   0.88351   0.00000  Uiso   1.00
O505   O     0.53581   0.69251  -0.03154   0.00000  Uiso   1.00
O506   O     0.43138   0.62875   1.02078   0.00000  Uiso   1.00
H507   H     0.50115   0.62831   0.10851   0.00000  Uiso   1.00
H508   H     0.53666   0.10046   0.07982   0.00000  Uiso   1.00
C509   C     0.50674   0.42844   0.01566   0.00000  Uiso   1.00
C510   C     0.49726   0.40633   0.97525   0.00000  Uiso   1.00
C511   C     0.50494   0.38014   0.96978   0.00000  Uiso   1.00
C512   C     0.52175   0.37528   0.00603   0.00000  Uiso   1.00
C513   C     0.53223   0.39821   0.04606   0.00000  Uiso   1.00
C514   C     0.52456   0.42449   0.05057   0.00000  Uiso   1.00
C515   C     0.49423   0.35660   0.92617   0.00000  Uiso   1.00
C516   C     0.55026   0.39358   0.08503   0.00000  Uiso   1.00
C517   C     0.54996   0.34490  -0.00966   0.00000  Uiso   1.00
C518   C     0.55169   0.31399  -0.00926   0.00000  Uiso   1.00
C519   C     0.52597   0.28202   0.00694   0.00000  Uiso   1.00
C520   C     0.49929   0.28146   0.02298   0.00000  Uiso   1.00
C521   C     0.49882   0.31296   0.02265   0.00000  Uiso   1.00
C522   C     0.57828   0.31415   0.97532   0.00000  Uiso   1.00
C523   C     0.57924   0.28299   0.97582   0.00000  Uiso   1.00
C524   C     0.55354   0.25086   0.99131   0.00000  Uiso   1.00
C525   C     0.52682   0.25046   0.00695   0.00000  Uiso   1.00
C526   C     0.50086   0.21850   0.02243   0.00000  Uiso   1.00
C527   C     0.47441   0.21833   0.03846   0.00000  Uiso   1.00
C528   C     0.47367   0.24948   0.03885   0.00000  Uiso   1.00
C529   C     0.55365   0.21896  -0.00867   0.00000  Uiso   1.00
C530   C     0.50191   0.18736   0.02127   0.00000  Uiso   1.00
C531   C     0.52746   0.15503   0.00425   0.00000  Uiso   1.00
C532   C     0.50365   0.14199   0.92080   0.00000  Uiso   1.00
C533   C     0.50525   0.09583   0.97065   0.00000  Uiso   1.00
C534   C     0.55327   0.16933   0.08536   0.00000  Uiso   1.00
C535   C     0.53016   0.10903   0.04798   0.00000  Uiso   1.00
C536   C     0.53711   0.14413   0.04464   0.00000  Uiso   1.00
C537   C     0.51267   0.13106   0.96605   0.00000  Uiso   1.00
C538   C     0.51338   0.08441   0.01192   0.00000  Uiso   1.00
H539   H     0.53820   0.17839   0.10079   0.00000  Uiso   1.00
N540   N     0.52375   0.34380   0.00607   0.00000  Uiso   1.00
N541   N     0.52794   0.18801   0.00573   0.00000  Uiso   1.00
H542   H     0.57496   0.19257   0.07182   0.00000  Uiso   1.00
H543   H     0.48321   0.40897   0.94848   0.00000  Uiso   1.00
H544   H     0.53189   0.44140   0.08198   0.00000  Uiso   1.00
H545   H     0.48165   0.36401   0.90091   0.00000  Uiso   1.00
H546   H     0.51441   0.35880   0.90671   0.00000  Uiso   1.00
H547   H     0.47851   0.32869   0.93724   0.00000  Uiso   1.00
H548   H     0.57218   0.39755   0.06983   0.00000  Uiso   1.00
H549   H     0.55591   0.41282   0.11472   0.00000  Uiso   1.00
H550   H     0.53662   0.36650   0.10043   0.00000  Uiso   1.00
O551   O     0.47303   0.31276   0.03883   0.00000  Uiso   1.00
O552   O     0.57457   0.37617   0.97397   0.00000  Uiso   1.00
H553   H     0.59844   0.33834   0.96284   0.00000  Uiso   1.00
H554   H     0.45288   0.24834   0.05142   0.00000  Uiso   1.00
H555   H     0.60011   0.28412   0.96369   0.00000  Uiso   1.00
H556   H     0.47824   0.12654   0.91707   0.00000  Uiso   1.00
H557   H     0.51139   0.17053   0.92043   0.00000  Uiso   1.00
H558   H     0.49217   0.07704   0.94260   0.00000  Uiso   1.00
H559   H     0.45416   0.19412   0.05069   0.00000  Uiso   1.00
H560   H     0.55911   0.15675   0.11456   0.00000  Uiso   1.00
O561   O     0.47656   0.15597   0.03568   0.00000  Uiso   1.00
O562   O     0.57948   0.21882   0.97642   0.00000  Uiso   1.00
H563   H     0.51443   0.13689   0.88921   0.00000  Uiso   1.00
loop_
_geom_bond_atom_site_label_1
_geom_bond_atom_site_label_2
_geom_bond_distance
_geom_bond_site_symmetry_2
_ccdc_geom_bond_type
C0     O11     1.283   .     A
C0     O12     1.281   .     A
C0     C90     1.470   .     S
Sm1    O5      2.228   .     S
Sm1    O6      2.223   .     S
Sm1    O8      2.266   .     S
Sm1    O10     2.220   .     S
Sm1    O13     2.266   .     S
Sm1    O9      2.218   1_554 S
Sm2    O7      2.259   .     S
Sm2    O11     2.229   .     S
Sm2    O12     2.220   .     S
Sm2    O14     2.268   .     S
Sm2    O16     2.216   .     S
Sm2    O15     2.221   1_556 S
C3     O13     1.273   .     A
C3     C509    1.483   .     S
C3     O14     1.275   1_554 A
C4     O16     1.282   .     A
C4     O15     1.282   1_556 A
C4     C370    1.464   1_556 S
O5     C17     1.283   .     A
O6     C17     1.281   .     A
O7     C18     1.271   .     A
O8     C18     1.274   1_554 A
O9     Sm1     2.218   1_556 S
O9     C19     1.282   1_556 A
O10    C19     1.283   .     A
O14    C3      1.275   1_556 A
O15    Sm2     2.221   1_554 S
O15    C4      1.282   1_554 A
C17    C61     1.469   .     S
C18    C482    1.480   .     S
C18    O8      1.274   1_556 A
C19    O9      1.282   1_554 A
C19    C229    1.467   1_554 S
C20    O32     1.282   .     A
C20    C146    1.477   .     S
C20    O31     1.282   1_655 A
Sm21   O25     2.227   .     S
Sm21   O28     2.273   .     S
Sm21   O30     2.228   .     S
Sm21   O26     2.231   1_655 S
Sm21   O29     2.242   1_556 S
Sm21   O33     2.273   1_655 S
Sm22   O31     2.224   .     S
Sm22   O34     2.273   .     S
Sm22   O36     2.231   .     S
Sm22   O27     2.276   1_455 S
Sm22   O32     2.234   1_455 S
Sm22   O35     2.235   1_554 S
C23    O33     1.275   .     A
C23    C426    1.470   .     S
C23    O34     1.271   1_556 A
C24    O36     1.280   .     A
C24    O35     1.283   1_554 A
C24    C258    1.477   1_554 S
O25    C37     1.282   1_655 A
O26    C37     1.282   .     A
O26    Sm21    2.231   1_455 S
O27    C38     1.276   .     A
O27    Sm22    2.276   1_655 S
O28    C38     1.271   1_556 A
O29    Sm21    2.242   1_554 S
O29    C39     1.283   1_554 A
O30    C39     1.278   .     A
O31    C20     1.282   1_455 A
O32    Sm22    2.234   1_655 S
O33    Sm21    2.273   1_455 S
O34    C23     1.271   1_554 A
O35    Sm22    2.235   1_556 S
O35    C24     1.283   1_556 A
C37    C117    1.476   .     S
C37    O25     1.282   1_455 A
C38    C285    1.478   .     S
C38    O28     1.271   1_554 A
C39    O29     1.283   1_556 A
C39    C341    1.475   1_556 S
C40    O52     1.281   .     A
C40    C173    1.474   .     S
C40    O51     1.283   1_545 A
Sm41   O45     2.228   .     S
Sm41   O48     2.265   .     S
Sm41   O50     2.220   .     S
Sm41   O46     2.221   1_545 S
Sm41   O49     2.226   1_556 S
Sm41   O53     2.263   1_545 S
Sm42   O51     2.233   .     S
Sm42   O54     2.258   .     S
Sm42   O56     2.226   .     S
Sm42   O47     2.260   1_565 S
Sm42   O52     2.219   1_565 S
Sm42   O55     2.222   1_554 S
C43    O53     1.271   .     A
C43    C453    1.482   .     S
C43    O54     1.271   1_556 A
C44    O56     1.281   .     A
C44    O55     1.281   1_554 A
C44    C397    1.463   1_554 S
O45    C57     1.283   1_545 A
O46    C57     1.282   .     A
O46    Sm41    2.221   1_565 S
O47    C58     1.274   .     A
O47    Sm42    2.260   1_545 S
O48    C58     1.273   1_556 A
O49    Sm41    2.226   1_554 S
O49    C59     1.282   1_554 A
O50    C59     1.281   .     A
O51    C40     1.283   1_565 A
O52    Sm42    2.219   1_545 S
O53    Sm41    2.263   1_565 S
O54    C43     1.271   1_554 A
O55    Sm42    2.222   1_556 S
O55    C44     1.281   1_556 A
C57    C202    1.473   .     S
C57    O45     1.283   1_565 A
C58    C538    1.481   .     S
C58    O48     1.273   1_554 A
C59    O49     1.282   1_556 A
C59    C314    1.469   1_556 S
H60    C87     1.085   .     S
C61    C62     1.399   .     A
C61    C66     1.401   .     A
C62    C63     1.403   .     A
C62    H95     1.084   .     S
C63    C64     1.412   .     A
C63    C67     1.503   .     S
C64    C65     1.412   .     A
C64    N92     1.442   .     S
C65    C66     1.404   .     A
C65    C68     1.504   .     S
C66    H96     1.085   .     S
C67    H97     1.111   .     S
C67    H98     1.110   .     S
C67    H99     1.111   .     S
C68    H100    1.110   .     S
C68    H101    1.111   .     S
C68    H102    1.110   .     S
C69    C70     1.406   .     A
C69    N92     1.371   .     A
C69    O104    1.373   .     S
C70    C71     1.409   .     A
C70    C74     1.406   .     A
C71    C72     1.409   .     A
C71    C77     1.415   .     A
C72    C73     1.406   .     A
C72    C80     1.405   .     A
C73    N92     1.370   .     A
C73    O103    1.373   .     S
C74    C75     1.397   .     A
C74    H105    1.083   .     S
C75    C76     1.405   .     A
C75    H107    1.083   .     S
C76    C77     1.409   .     A
C76    C81     1.406   .     A
C77    C78     1.409   .     A
C78    C79     1.406   .     A
C78    C82     1.406   .     A
C79    C80     1.398   .     A
C79    H111    1.083   .     S
C80    H106    1.083   .     S
C81    N93     1.370   .     A
C81    O114    1.373   .     S
C82    N93     1.371   .     A
C82    O113    1.373   .     S
C83    C88     1.414   .     A
C83    C89     1.415   .     A
C83    N93     1.442   .     S
C84    C89     1.506   .     S
C84    H108    1.110   .     S
C84    H109    1.108   .     S
C84    H115    1.111   .     S
C85    C89     1.402   .     A
C85    C90     1.400   .     A
C85    H110    1.085   .     S
C86    C88     1.504   .     S
C86    H91     1.110   .     S
C86    H94     1.111   .     S
C86    H112    1.111   .     S
C87    C88     1.404   .     A
C87    C90     1.399   .     A
H116   C143    1.083   .     S
C117   C118    1.402   .     A
C117   C122    1.402   .     A
C118   C119    1.404   .     A
C118   H151    1.084   1_455 S
C119   C120    1.411   .     A
C119   C123    1.505   1_455 S
C120   C121    1.412   .     A
C120   N148    1.442   .     S
C121   C122    1.404   .     A
C121   C124    1.505   .     S
C122   H152    1.084   .     S
C123   H153    1.111   .     S
C123   H154    1.111   .     S
C123   H155    1.110   .     S
C123   C119    1.505   1_655 S
C124   H156    1.110   .     S
C124   H157    1.110   .     S
C124   H158    1.111   .     S
C125   C126    1.406   .     A
C125   O160    1.373   .     S
C125   N148    1.370   1_655 A
C126   C130    1.405   .     A
C126   C127    1.409   1_655 A
C127   C128    1.409   .     A
C127   C126    1.409   1_455 A
C127   C133    1.415   1_455 A
C128   C129    1.406   .     A
C128   C136    1.405   .     A
C129   N148    1.370   .     A
C129   O159    1.373   .     S
C130   C131    1.398   .     A
C130   H161    1.083   .     S
C131   C132    1.406   .     A
C131   H163    1.083   .     S
C132   C133    1.409   .     A
C132   C137    1.407   .     A
C133   C127    1.415   1_655 A
C133   C134    1.409   1_655 A
C134   C135    1.405   .     A
C134   C138    1.406   .     A
C134   C133    1.409   1_455 A
C135   C136    1.397   .     A
C135   H167    1.083   .     S
C136   H162    1.083   .     S
C137   N149    1.371   .     A
C137   O170    1.372   .     S
C138   O169    1.373   .     S
C138   N149    1.369   1_455 A
C139   C145    1.415   .     A
C139   N149    1.443   .     S
C139   C144    1.411   1_655 A
C140   C145    1.506   .     S
C140   H164    1.110   .     S
C140   H165    1.109   .     S
C140   H171    1.110   .     S
C141   C145    1.405   .     A
C141   C146    1.402   .     A
C141   H166    1.084   .     S
C142   C144    1.503   .     S
C142   H147    1.110   .     S
C142   H150    1.110   .     S
C142   H168    1.111   .     S
C143   C144    1.402   .     A
C143   C146    1.401   1_455 A
C144   C139    1.411   1_455 A
C146   C143    1.401   1_655 A
N148   C125    1.370   1_455 A
N149   C138    1.369   1_655 A
H151   C118    1.084   1_655 S
H172   C199    1.083   .     S
C173   C174    1.402   .     A
C173   C178    1.402   .     A
C174   C175    1.401   .     A
C174   H207    1.084   .     S
C175   C176    1.409   .     A
C175   C179    1.504   .     S
C176   C177    1.412   .     A
C176   N204    1.440   .     S
C177   C178    1.405   .     A
C177   C180    1.505   1_545 S
C178   H208    1.084   1_545 S
C179   H209    1.110   .     S
C179   H210    1.110   .     S
C179   H211    1.110   .     S
C180   H212    1.111   .     S
C180   H213    1.111   .     S
C180   H214    1.110   .     S
C180   C177    1.505   1_565 S
C181   N204    1.370   .     A
C181   C182    1.405   1_545 A
C181   O216    1.373   1_545 S
C182   C186    1.405   .     A
C182   C181    1.405   1_565 A
C182   C183    1.409   1_565 A
C183   C184    1.409   .     A
C183   C189    1.413   .     A
C183   C182    1.409   1_545 A
C184   C185    1.404   .     A
C184   C192    1.405   .     A
C185   N204    1.369   .     A
C185   O215    1.373   .     S
C186   C187    1.397   .     A
C186   H217    1.083   .     S
C187   C188    1.405   .     A
C187   H219    1.083   .     S
C188   C193    1.405   .     A
C188   C189    1.409   1_565 A
C189   C190    1.409   .     A
C189   C188    1.409   1_545 A
C190   C191    1.405   .     A
C190   C194    1.404   .     A
C191   C192    1.396   .     A
C191   H223    1.083   .     S
C192   H218    1.083   .     S
C193   N205    1.369   .     A
C193   O226    1.373   .     S
C194   O225    1.373   .     S
C194   N205    1.369   1_545 A
C195   C200    1.411   .     A
C195   N205    1.439   .     S
C195   C201    1.413   1_565 A
C196   C201    1.507   .     S
C196   H220    1.111   .     S
C196   H221    1.109   .     S
C196   H227    1.110   .     S
C197   C202    1.402   .     A
C197   C201    1.402   1_565 A
C197   H222    1.085   1_565 S
C198   C200    1.505   .     S
C198   H203    1.110   .     S
C198   H206    1.110   .     S
C198   H224    1.110   .     S
C199   C200    1.402   .     A
C199   C202    1.401   .     A
C201   C195    1.413   1_545 A
C201   C197    1.402   1_545 A
N205   C194    1.369   1_565 A
H208   C178    1.084   1_565 S
O216   C181    1.373   1_565 S
H222   C197    1.085   1_545 S
H228   C255    1.083   .     S
C229   C234    1.400   .     A
C229   C230    1.399   1_556 A
C229   C19     1.467   1_556 S
C230   C231    1.401   .     A
C230   H263    1.084   .     S
C230   C229    1.399   1_554 A
C231   C235    1.505   .     S
C231   C232    1.414   1_554 A
C232   C233    1.412   .     A
C232   N260    1.440   .     S
C232   C231    1.414   1_556 A
C233   C234    1.401   .     A
C233   C236    1.505   .     S
C234   H264    1.084   .     S
C235   H265    1.111   .     S
C235   H266    1.109   .     S
C235   H267    1.111   .     S
C236   H268    1.110   .     S
C236   H269    1.111   .     S
C236   H270    1.110   .     S
C237   C238    1.408   .     A
C237   O272    1.373   .     S
C237   N260    1.370   1_554 A
C238   C242    1.406   .     A
C238   C239    1.409   1_554 A
C239   C240    1.408   .     A
C239   C245    1.414   .     A
C239   C238    1.409   1_556 A
C240   C241    1.402   .     A
C240   C248    1.404   .     A
C241   N260    1.370   .     A
C241   O271    1.374   .     S
C242   C243    1.400   .     A
C242   H273    1.083   .     S
C243   C244    1.407   .     A
C243   H275    1.083   .     S
C244   C249    1.408   .     A
C244   C245    1.408   1_554 A
C245   C246    1.408   .     A
C245   C244    1.408   1_556 A
C246   C247    1.405   .     A
C246   C250    1.402   .     A
C247   C248    1.395   .     A
C247   H279    1.083   .     S
C248   H274    1.083   .     S
C249   O282    1.372   .     S
C249   N261    1.371   1_554 A
C250   N261    1.369   .     A
C250   O281    1.373   .     S
C251   C256    1.412   .     A
C251   N261    1.441   .     S
C251   C257    1.416   1_556 A
C252   C257    1.512   .     S
C252   H276    1.110   .     S
C252   H277    1.108   .     S
C252   H283    1.108   .     S
C253   C257    1.405   .     A
C253   H278    1.084   .     S
C253   C258    1.403   1_554 A
C254   C256    1.504   .     S
C254   H259    1.110   .     S
C254   H262    1.110   .     S
C254   H280    1.110   .     S
C255   C256    1.403   .     A
C255   C258    1.400   .     A
C257   C251    1.416   1_554 A
C258   C253    1.403   1_556 A
C258   C24     1.477   1_556 S
N260   C237    1.370   1_556 A
N261   C249    1.371   1_556 A
H284   C311    1.084   .     S
C285   C290    1.404   .     A
C285   C286    1.400   1_554 A
C286   C287    1.402   .     A
C286   H319    1.083   .     S
C286   C285    1.400   1_556 A
C287   C291    1.506   .     S
C287   C288    1.413   1_556 A
C288   C289    1.412   .     A
C288   N316    1.441   .     S
C288   C287    1.413   1_554 A
C289   C290    1.403   .     A
C289   C292    1.508   .     S
C290   H320    1.083   .     S
C291   H321    1.111   .     S
C291   H322    1.109   .     S
C291   H323    1.111   .     S
C292   H324    1.111   .     S
C292   H325    1.111   .     S
C292   H326    1.110   .     S
C293   C294    1.402   .     A
C293   O328    1.373   .     S
C293   N316    1.369   1_556 A
C294   C298    1.404   .     A
C294   C295    1.408   1_556 A
C295   C296    1.407   .     A
C295   C301    1.413   .     A
C295   C294    1.408   1_554 A
C296   C297    1.406   .     A
C296   C304    1.406   .     A
C297   N316    1.370   .     A
C297   O327    1.371   .     S
C298   C299    1.395   .     A
C298   H329    1.083   .     S
C299   C300    1.405   .     A
C299   H331    1.083   .     S
C300   C305    1.402   .     A
C300   C301    1.408   1_556 A
C301   C302    1.409   .     A
C301   C300    1.408   1_554 A
C302   C303    1.405   .     A
C302   C306    1.407   .     A
C303   C304    1.398   .     A
C303   H335    1.083   .     S
C304   H330    1.081   .     S
C305   O338    1.374   .     S
C305   N317    1.371   1_556 A
C306   N317    1.371   .     A
C306   O337    1.373   .     S
C307   C312    1.415   .     A
C307   N317    1.441   .     S
C307   C313    1.417   1_554 A
C308   C313    1.507   .     S
C308   H332    1.111   .     S
C308   H333    1.107   .     S
C308   H339    1.111   .     S
C309   C313    1.400   .     A
C309   H334    1.085   .     S
C309   C314    1.398   1_556 A
C310   C312    1.507   .     S
C310   H315    1.110   .     S
C310   H318    1.109   .     S
C310   H336    1.111   .     S
C311   C312    1.403   .     A
C311   C314    1.400   .     A
C313   C307    1.417   1_556 A
C314   C309    1.398   1_554 A
C314   C59     1.469   1_554 S
N316   C293    1.369   1_554 A
N317   C305    1.371   1_554 A
H340   C367    1.085   .     S
C341   C346    1.400   .     A
C341   C342    1.402   1_554 A
C341   C39     1.475   1_554 S
C342   C343    1.403   .     A
C342   H375    1.084   .     S
C342   C341    1.402   1_556 A
C343   C347    1.506   .     S
C343   C344    1.413   1_556 A
C344   C345    1.413   .     A
C344   N372    1.445   .     S
C344   C343    1.413   1_554 A
C345   C346    1.407   .     A
C345   C348    1.503   .     S
C346   H376    1.084   .     S
C347   H377    1.110   .     S
C347   H378    1.110   .     S
C347   H379    1.110   .     S
C348   H380    1.111   .     S
C348   H381    1.111   .     S
C348   H382    1.110   .     S
C349   C350    1.406   .     A
C349   O384    1.369   .     S
C349   N372    1.370   1_556 A
C350   C354    1.407   .     A
C350   C351    1.407   1_556 A
C351   C352    1.409   .     A
C351   C357    1.414   .     A
C351   C350    1.407   1_554 A
C352   C353    1.407   .     A
C352   C360    1.405   .     A
C353   N372    1.370   .     A
C353   O383    1.373   .     S
C354   C355    1.398   .     A
C354   H385    1.083   .     S
C355   C356    1.405   .     A
C355   H387    1.083   .     S
C356   C361    1.407   .     A
C356   C357    1.410   1_556 A
C357   C358    1.408   .     A
C357   C356    1.410   1_554 A
C358   C359    1.405   .     A
C358   C362    1.404   .     A
C359   C360    1.397   .     A
C359   H391    1.083   .     S
C360   H386    1.083   .     S
C361   O394    1.373   .     S
C361   N373    1.370   1_556 A
C362   N373    1.370   .     A
C362   O393    1.374   .     S
C363   C368    1.414   .     A
C363   N373    1.440   .     S
C363   C369    1.417   1_554 A
C364   C369    1.506   .     S
C364   H388    1.111   .     S
C364   H389    1.107   .     S
C364   H395    1.110   .     S
C365   C369    1.399   .     A
C365   H390    1.085   .     S
C365   C370    1.397   1_556 A
C366   C368    1.504   .     S
C366   H371    1.110   .     S
C366   H374    1.110   .     S
C366   H392    1.111   .     S
C367   C368    1.402   .     A
C367   C370    1.399   .     A
C369   C363    1.417   1_556 A
C370   C365    1.397   1_554 A
C370   C4      1.464   1_554 S
N372   C349    1.370   1_554 A
N373   C361    1.370   1_554 A
H396   C423    1.084   .     S
C397   C398    1.399   .     A
C397   C402    1.397   1_556 A
C397   C44     1.463   1_556 S
C398   C399    1.404   .     A
C398   H431    1.081   .     S
C399   C400    1.412   .     A
C399   C403    1.505   .     S
C400   N428    1.439   .     S
C400   C401    1.413   1_556 A
C401   C402    1.400   .     A
C401   C404    1.506   .     S
C401   C400    1.413   1_554 A
C402   H432    1.084   .     S
C402   C397    1.397   1_554 A
C403   H433    1.109   .     S
C403   H434    1.110   .     S
C403   H435    1.111   .     S
C404   H436    1.110   .     S
C404   H437    1.111   .     S
C404   H438    1.109   .     S
C405   N428    1.371   .     A
C405   C406    1.404   1_556 A
C405   O440    1.374   1_556 S
C406   C410    1.405   .     A
C406   C405    1.404   1_554 A
C406   C407    1.409   1_554 A
C407   C408    1.409   .     A
C407   C413    1.412   .     A
C407   C406    1.409   1_556 A
C408   C409    1.403   .     A
C408   C416    1.405   .     A
C409   N428    1.369   .     A
C409   O439    1.374   .     S
C410   C411    1.397   .     A
C410   H441    1.083   .     S
C411   C412    1.406   .     A
C411   H443    1.083   .     S
C412   C417    1.403   .     A
C412   C413    1.408   1_554 A
C413   C414    1.409   .     A
C413   C412    1.408   1_556 A
C414   C415    1.404   .     A
C414   C418    1.403   .     A
C415   C416    1.396   .     A
C415   H447    1.083   .     S
C416   H442    1.083   .     S
C417   O450    1.368   .     S
C417   N429    1.369   1_554 A
C418   N429    1.369   .     A
C418   O449    1.374   .     S
C419   C425    1.414   .     A
C419   N429    1.440   .     S
C419   C424    1.414   1_556 A
C420   C425    1.506   .     S
C420   H444    1.110   .     S
C420   H445    1.109   .     S
C420   H451    1.109   .     S
C421   C425    1.403   .     A
C421   C426    1.402   .     A
C421   H446    1.084   .     S
C422   C424    1.506   .     S
C422   H427    1.110   .     S
C422   H430    1.109   .     S
C422   H448    1.111   .     S
C423   C424    1.400   .     A
C423   C426    1.398   1_554 A
C424   C419    1.414   1_554 A
C426   C423    1.398   1_556 A
N429   C417    1.369   1_556 A
O440   C405    1.374   1_554 S
H452   C479    1.083   .     S
C453   C458    1.404   .     A
C453   C454    1.404   1_556 A
C454   C455    1.406   .     A
C454   H487    1.084   .     S
C454   C453    1.404   1_554 A
C455   C459    1.505   .     S
C455   C456    1.412   1_554 A
C456   C457    1.411   .     A
C456   N484    1.442   .     S
C456   C455    1.412   1_556 A
C457   C458    1.403   .     A
C457   C460    1.505   .     S
C458   H488    1.083   .     S
C459   H489    1.111   .     S
C459   H490    1.111   .     S
C459   H491    1.110   .     S
C460   H492    1.109   .     S
C460   H493    1.110   .     S
C460   H494    1.110   .     S
C461   C462    1.409   .     A
C461   N484    1.371   .     A
C461   O496    1.372   .     S
C462   C463    1.409   .     A
C462   C466    1.407   .     A
C463   C464    1.408   .     A
C463   C469    1.415   .     A
C464   C465    1.403   .     A
C464   C472    1.405   .     A
C465   N484    1.370   .     A
C465   O495    1.373   .     S
C466   C467    1.400   .     A
C466   H497    1.083   .     S
C467   C468    1.406   .     A
C467   H499    1.084   .     S
C468   C469    1.409   .     A
C468   C473    1.409   .     A
C469   C470    1.409   .     A
C470   C471    1.405   .     A
C470   C474    1.403   .     A
C471   C472    1.395   .     A
C471   H503    1.083   1_556 S
C472   H498    1.083   .     S
C473   N485    1.371   .     A
C473   O506    1.373   .     S
C474   N485    1.371   .     A
C474   O505    1.374   1_556 S
C475   C480    1.412   .     A
C475   N485    1.443   .     S
C475   C481    1.415   1_556 A
C476   C481    1.505   .     S
C476   H500    1.111   .     S
C476   H501    1.109   .     S
C476   H507    1.110   .     S
C477   C481    1.403   .     A
C477   H502    1.084   .     S
C477   C482    1.401   1_554 A
C478   C480    1.507   .     S
C478   H483    1.111   .     S
C478   H486    1.110   .     S
C478   H504    1.111   .     S
C479   C480    1.405   .     A
C479   C482    1.405   .     A
C481   C475    1.415   1_554 A
C482   C477    1.401   1_556 A
H503   C471    1.083   1_554 S
O505   C474    1.374   1_554 S
H508   C535    1.083   .     S
C509   C514    1.405   .     A
C509   C510    1.402   1_554 A
C510   C511    1.405   .     A
C510   H543    1.083   .     S
C510   C509    1.402   1_556 A
C511   C515    1.506   .     S
C511   C512    1.413   1_556 A
C512   C513    1.412   .     A
C512   N540    1.445   .     S
C512   C511    1.413   1_554 A
C513   C514    1.406   .     A
C513   C516    1.506   .     S
C514   H544    1.083   .     S
C515   H545    1.111   .     S
C515   H546    1.111   .     S
C515   H547    1.110   .     S
C516   H548    1.111   .     S
C516   H549    1.111   .     S
C516   H550    1.111   .     S
C517   C518    1.412   .     A
C517   N540    1.372   .     A
C517   O552    1.372   1_554 S
C518   C519    1.409   .     A
C518   C522    1.407   1_554 A
C519   C520    1.408   .     A
C519   C525    1.416   .     A
C520   C521    1.403   .     A
C520   C528    1.405   .     A
C521   N540    1.371   .     A
C521   O551    1.374   .     S
C522   C523    1.401   .     A
C522   H553    1.083   .     S
C522   C518    1.407   1_556 A
C523   C524    1.407   .     A
C523   H555    1.083   .     S
C524   C525    1.409   1_556 A
C524   C529    1.411   1_556 A
C525   C526    1.408   .     A
C525   C524    1.409   1_554 A
C526   C527    1.405   .     A
C526   C530    1.403   .     A
C527   C528    1.395   .     A
C527   H559    1.084   .     S
C528   H554    1.083   .     S
C529   N541    1.371   .     A
C529   C524    1.411   1_554 A
C529   O562    1.372   1_554 S
C530   N541    1.371   .     A
C530   O561    1.374   .     S
C531   C536    1.411   .     A
C531   N541    1.444   .     S
C531   C537    1.414   1_554 A
C532   C537    1.506   .     S
C532   H556    1.110   .     S
C532   H557    1.110   .     S
C532   H563    1.111   .     S
C533   C537    1.404   .     A
C533   H558    1.084   .     S
C533   C538    1.403   1_556 A
C534   C536    1.504   .     S
C534   H539    1.111   .     S
C534   H542    1.110   .     S
C534   H560    1.110   .     S
C535   C536    1.404   .     A
C535   C538    1.403   .     A
C537   C531    1.414   1_556 A
C538   C533    1.403   1_554 A
O552   C517    1.372   1_556 S
O562   C529    1.372   1_556 S
