data_kag+N139+E59
_audit_creation_date              2025-01-21
_audit_creation_method            'Materials Studio'
_symmetry_space_group_name_H-M    'P1'
_symmetry_Int_Tables_number       1
_symmetry_cell_setting            triclinic
loop_
_symmetry_equiv_pos_as_xyz
  x,y,z
_cell_length_a                    45.9318
_cell_length_b                    40.2568
_cell_length_c                    24.6570
_cell_angle_alpha                 93.3735
_cell_angle_beta                  95.0884
_cell_angle_gamma                 119.6670
loop_
_atom_site_label
_atom_site_type_symbol
_atom_site_fract_x
_atom_site_fract_y
_atom_site_fract_z
_atom_site_U_iso_or_equiv
_atom_site_adp_type
_atom_site_occupancy
C0     C     0.50495   0.54352   0.81725   0.00000  Uiso   1.00
Sm1    Sm    0.47284   0.48717   0.05698   0.00000  Uiso   1.00
Sm2    Sm    0.52267   0.50767   0.88663   0.00000  Uiso   1.00
C3     C     0.50164   0.44957  -0.01711   0.00000  Uiso   1.00
C4     C     0.58767   0.53684   0.93242   0.00000  Uiso   1.00
O5     O     0.50150   0.49255   0.13753   0.00000  Uiso   1.00
O6     O     0.44744   0.45226   0.12276   0.00000  Uiso   1.00
O7     O     0.54200   0.56253   0.94959   0.00000  Uiso   1.00
O8     O     0.50697   0.52660   0.00160   0.00000  Uiso   1.00
O9     O     0.43112   0.48575   1.00067   0.00000  Uiso   1.00
O10    O     0.45369   0.52712   0.07362   0.00000  Uiso   1.00
O11    O     0.48621   0.52456   0.85247   0.00000  Uiso   1.00
O12    O     0.53342   0.54450   0.81871   0.00000  Uiso   1.00
O13    O     0.48816   0.44392   0.02676   0.00000  Uiso   1.00
O14    O     0.49573   0.46970   0.95086   0.00000  Uiso   1.00
O15    O     0.57173   0.55490  -0.06426   0.00000  Uiso   1.00
O16    O     0.56985   0.50358   0.90666   0.00000  Uiso   1.00
C17    C     0.47526   0.46631   0.15525   0.00000  Uiso   1.00
C18    C     0.52829   0.55995   0.99402   0.00000  Uiso   1.00
C19    C     0.43359   0.51523   0.02850   0.00000  Uiso   1.00
C20    C     0.98763   0.48496   0.16366   0.00000  Uiso   1.00
Sm21   Sm    0.98622   0.52810   0.92268   0.00000  Uiso   1.00
Sm22   Sm    0.01660   0.48984   0.07518   0.00000  Uiso   1.00
C23    C     0.05235   0.53999   0.97724   0.00000  Uiso   1.00
C24    C     0.06681   0.47591   0.08236   0.00000  Uiso   1.00
O25    O     0.96895   0.46987   0.87674   0.00000  Uiso   1.00
O26    O    -0.01561   0.51674   0.83025   0.00000  Uiso   1.00
O27    O     0.96622   0.46180   0.02225   0.00000  Uiso   1.00
O28    O     0.97200   0.46511   0.93292   0.00000  Uiso   1.00
O29    O     0.97093   0.52806   0.00586   0.00000  Uiso   1.00
O30    O     0.93275   0.50942   0.93521   0.00000  Uiso   1.00
O31    O    -0.00225   0.51420   0.13677   0.00000  Uiso   1.00
O32    O     0.99402   0.45895   0.14585   0.00000  Uiso   1.00
O33    O     0.04174   0.54571   0.93157   0.00000  Uiso   1.00
O34    O     0.03294   0.53246   0.01365   0.00000  Uiso   1.00
O35    O     0.04112   0.45806   1.04516   0.00000  Uiso   1.00
O36    O     0.06745   0.50284   0.11408   0.00000  Uiso   1.00
C37    C    -0.02656   0.48102   0.82951   0.00000  Uiso   1.00
C38    C     0.96346   0.44587  -0.02546   0.00000  Uiso   1.00
C39    C     0.93965   0.51416   0.98768   0.00000  Uiso   1.00
C40    C     0.51391   0.02425   0.16490   0.00000  Uiso   1.00
Sm41   Sm    0.54192   0.01205   0.91242   0.00000  Uiso   1.00
Sm42   Sm    0.48647   0.99008   0.06575   0.00000  Uiso   1.00
C43    C     0.48903   0.94240   0.95872   0.00000  Uiso   1.00
C44    C     0.42130   0.94054   0.05200   0.00000  Uiso   1.00
O45    O     0.50539   0.03020   0.87845   0.00000  Uiso   1.00
O46    O     0.52365   1.00567   0.82193   0.00000  Uiso   1.00
O47    O     0.51632   0.04346   0.02683   0.00000  Uiso   1.00
O48    O     0.50535   0.03340   0.93513   0.00000  Uiso   1.00
O49    O     0.56862   0.04025  -0.00364   0.00000  Uiso   1.00
O50    O     0.58285   0.07364   0.92783   0.00000  Uiso   1.00
O51    O     0.52730   1.00948   0.13554   0.00000  Uiso   1.00
O52    O     0.48563   0.02000   0.14330   0.00000  Uiso   1.00
O53    O     0.50100   0.94952   0.91373   0.00000  Uiso   1.00
O54    O     0.50379   0.96943  -0.00283   0.00000  Uiso   1.00
O55    O     0.43496   0.96752   1.02180   0.00000  Uiso   1.00
O56    O     0.44197   0.93664   0.08608   0.00000  Uiso   1.00
C57    C     0.50479   1.01976   0.82845   0.00000  Uiso   1.00
C58    C     0.50092   0.04469  -0.01775   0.00000  Uiso   1.00
C59    C     0.58677   0.07310   0.97978   0.00000  Uiso   1.00
C60    C     0.48988   0.51256   0.63648   0.00000  Uiso   1.00
C61    C     0.46786   0.48315   0.54212   0.00000  Uiso   1.00
H62    H     0.55510   0.50339   0.37901   0.00000  Uiso   1.00
C63    C     0.52658   0.53300   0.56518   0.00000  Uiso   1.00
C64    C     0.52186   0.53554   0.62023   0.00000  Uiso   1.00
N65    N     0.48166   0.47843   0.25491   0.00000  Uiso   1.00
N66    N     0.49917   0.55444   0.72146   0.00000  Uiso   1.00
O67    O     0.53724   0.50265   0.27887   0.00000  Uiso   1.00
O68    O     0.46423   0.49028   0.71463   0.00000  Uiso   1.00
H69    H     0.49888   0.44547   0.21090   0.00000  Uiso   1.00
H70    H     0.45416   0.42352   0.20961   0.00000  Uiso   1.00
H71    H     0.55080   0.50803   0.47676   0.00000  Uiso   1.00
H72    H     0.46203   0.50533   0.34326   0.00000  Uiso   1.00
H73    H     0.45751   0.50857   0.44068   0.00000  Uiso   1.00
H74    H     0.45973   0.47845   0.26276   0.00000  Uiso   1.00
H75    H     0.43848   0.46685   0.60888   0.00000  Uiso   1.00
H76    H     0.46693   0.55397   0.77814   0.00000  Uiso   1.00
H77    H     0.50928   0.59451   0.78976   0.00000  Uiso   1.00
H78    H     0.44668   0.46264   0.51239   0.00000  Uiso   1.00
H79    H     0.54312   0.55585   0.65001   0.00000  Uiso   1.00
H80    H     0.55122   0.55181   0.55351   0.00000  Uiso   1.00
H81    H     0.51314   0.57805   0.70063   0.00000  Uiso   1.00
C82    C     0.53384   0.50500   0.39178   0.00000  Uiso   1.00
C83    C     0.51021   0.49563   0.29314   0.00000  Uiso   1.00
C84    C     0.47761   0.45145   0.20843   0.00000  Uiso   1.00
C85    C     0.50327   0.50746   0.46612   0.00000  Uiso   1.00
C86    C     0.50856   0.50299   0.35257   0.00000  Uiso   1.00
C87    C     0.53128   0.50736   0.44785   0.00000  Uiso   1.00
C88    C     0.48140   0.50513   0.37129   0.00000  Uiso   1.00
C89    C     0.47871   0.50707   0.42739   0.00000  Uiso   1.00
C90    C     0.46324   0.48536   0.59726   0.00000  Uiso   1.00
C91    C     0.48381   0.51810   0.69343   0.00000  Uiso   1.00
C92    C     0.49401   0.56296   0.77716   0.00000  Uiso   1.00
C93    C     0.49931   0.50769   0.52530   0.00000  Uiso   1.00
C94    C     0.99760   0.51329   0.36178   0.00000  Uiso   1.00
C95    C     0.98585   0.51961   0.45495   0.00000  Uiso   1.00
H96    H    -0.00576   0.41934   0.60098   0.00000  Uiso   1.00
C97    C     0.02229   0.49407   0.43629   0.00000  Uiso   1.00
C98    C     0.01831   0.49870   0.38073   0.00000  Uiso   1.00
N99    N    -0.02169   0.47224   0.73064   0.00000  Uiso   1.00
N100   N     0.98712   0.48815   0.26303   0.00000  Uiso   1.00
O101   O    -0.00560   0.43035   0.70261   0.00000  Uiso   1.00
O102   O     0.98492   0.54108   0.28996   0.00000  Uiso   1.00
H103   H    -0.06167   0.43363   0.77113   0.00000  Uiso   1.00
H104   H    -0.02195   0.43605   0.79078   0.00000  Uiso   1.00
H105   H     0.00142   0.43904   0.50954   0.00000  Uiso   1.00
H106   H     0.00403   0.52817   0.66016   0.00000  Uiso   1.00
H107   H     1.00991   0.54706   0.56779   0.00000  Uiso   1.00
H108   H    -0.02748   0.49342   0.72103   0.00000  Uiso   1.00
H109   H     0.96521   0.53477   0.38603   0.00000  Uiso   1.00
H110   H     0.95604   0.49917   0.20555   0.00000  Uiso   1.00
H111   H     0.94557   0.45017   0.20426   0.00000  Uiso   1.00
H112   H     0.97212   0.52675   0.48245   0.00000  Uiso   1.00
H113   H     0.03125   0.49061   0.35277   0.00000  Uiso   1.00
H114   H     0.03810   0.48239   0.44976   0.00000  Uiso   1.00
H115   H     0.99382   0.46783   0.27342   0.00000  Uiso   1.00
C116   C    -0.00195   0.44757   0.59475   0.00000  Uiso   1.00
C117   C    -0.00961   0.45731   0.69263   0.00000  Uiso   1.00
C118   C    -0.03389   0.45339   0.77978   0.00000  Uiso   1.00
C119   C     0.00585   0.49441   0.53126   0.00000  Uiso   1.00
C120   C    -0.00271   0.47153   0.63799   0.00000  Uiso   1.00
C121   C     0.00236   0.45890   0.54220   0.00000  Uiso   1.00
C122   C     0.00275   0.50805   0.62771   0.00000  Uiso   1.00
C123   C     0.00665   0.51918   0.57481   0.00000  Uiso   1.00
C124   C     0.98190   0.52423   0.39966   0.00000  Uiso   1.00
C125   C     0.99030   0.51559   0.30275   0.00000  Uiso   1.00
C126   C     0.96713   0.48021   0.20923   0.00000  Uiso   1.00
C127   C     0.00554   0.50379   0.47383   0.00000  Uiso   1.00
C128   C     0.48137   0.98958   0.63284   0.00000  Uiso   1.00
C129   C     0.46315   0.97090   0.53459   0.00000  Uiso   1.00
H130   H     0.56504   0.00377   0.39198   0.00000  Uiso   1.00
C131   C     0.52237   1.01383   0.56840   0.00000  Uiso   1.00
C132   C     0.51496   1.01141   0.62225   0.00000  Uiso   1.00
N133   N     0.51690   0.02510   0.26417   0.00000  Uiso   1.00
N134   N     0.49278   1.01885   0.72991   0.00000  Uiso   1.00
O135   O     0.56654   0.03530   0.30614   0.00000  Uiso   1.00
O136   O     0.44516   0.96322   0.69852   0.00000  Uiso   1.00
H137   H     0.52829   0.07298   0.22161   0.00000  Uiso   1.00
H138   H     0.55891   0.05777   0.22102   0.00000  Uiso   1.00
H139   H     0.54844  -0.00848   0.48301   0.00000  Uiso   1.00
H140   H     0.47867   0.01738   0.34592   0.00000  Uiso   1.00
H141   H     0.46224   0.00467   0.43669   0.00000  Uiso   1.00
H142   H     0.49078   0.01222   0.26351   0.00000  Uiso   1.00
H143   H     0.42970   0.95040   0.59516   0.00000  Uiso   1.00
H144   H     0.45605   1.00040   0.78602   0.00000  Uiso   1.00
H145   H     0.48447   0.05131   0.79008   0.00000  Uiso   1.00
H146   H     0.44284   0.95481   0.50116   0.00000  Uiso   1.00
H147   H     0.53577   1.02669   0.65506   0.00000  Uiso   1.00
H148   H     0.54834   1.03192   0.56146   0.00000  Uiso   1.00
H149   H     0.51552   1.04185   0.72223   0.00000  Uiso   1.00
C150   C     0.54229   0.00361   0.40076   0.00000  Uiso   1.00
C151   C     0.53673   0.02423   0.30867   0.00000  Uiso   1.00
C152   C     0.53141   0.04735   0.21899   0.00000  Uiso   1.00
C153   C     0.50437  -0.00238   0.46701   0.00000  Uiso   1.00
C154   C     0.52325   0.01143   0.36097   0.00000  Uiso   1.00
C155   C     0.53296  -0.00317   0.45305   0.00000  Uiso   1.00
C156   C     0.49379   0.01073   0.37445   0.00000  Uiso   1.00
C157   C     0.48436   0.00368   0.42685   0.00000  Uiso   1.00
C158   C     0.45571   0.96839   0.58844   0.00000  Uiso   1.00
C159   C     0.47212   0.98934   0.68930   0.00000  Uiso   1.00
C160   C     0.48256   1.02272   0.78351   0.00000  Uiso   1.00
C161   C     0.49648   0.99395   0.52405   0.00000  Uiso   1.00
C162   C     0.18560   0.50988   0.08140   0.00000  Uiso   1.00
C163   C     0.23950   0.51163   0.09665   0.00000  Uiso   1.00
H164   H     0.31697   0.53361   0.91897   0.00000  Uiso   1.00
C165   C     0.21035   0.49807   1.00445   0.00000  Uiso   1.00
C166   C     0.18454   0.50164   1.02472   0.00000  Uiso   1.00
N167   N     0.38208   0.51910   1.01397   0.00000  Uiso   1.00
N168   N     0.12476   0.49537   1.07075   0.00000  Uiso   1.00
O169   O     0.36278   0.51089   0.92407   0.00000  Uiso   1.00
O170   O     0.15955   0.52067   0.15258   0.00000  Uiso   1.00
H171   H     0.42195   0.54178   0.96390   0.00000  Uiso   1.00
H172   H     0.43113   0.56674   1.03082   0.00000  Uiso   1.00
H173   H     0.26703   0.53175   0.94931   0.00000  Uiso   1.00
H174   H     0.32083   0.46846   0.04954   0.00000  Uiso   1.00
H175   H     0.27116   0.46703   0.08047   0.00000  Uiso   1.00
H176   H     0.37681   0.51879   0.05428   0.00000  Uiso   1.00
H177   H     0.21549   0.52187   0.16088   0.00000  Uiso   1.00
H178   H     0.09824   0.46080   0.13128   0.00000  Uiso   1.00
H179   H     0.08526   0.43815   1.06178   0.00000  Uiso   1.00
H180   H     0.26074   0.51586   0.12512   0.00000  Uiso   1.00
H181   H     0.16383   0.49753   0.99541   0.00000  Uiso   1.00
H182   H     0.20840   0.49088   0.96077   0.00000  Uiso   1.00
H183   H     0.12371   0.50069   1.02990   0.00000  Uiso   1.00
C184   C     0.30678   0.51836   0.95359   0.00000  Uiso   1.00
C185   C     0.35701   0.51018   0.97131   0.00000  Uiso   1.00
C186   C     0.41785   0.53755   1.00723   0.00000  Uiso   1.00
C187   C     0.26578   0.50009   1.01810   0.00000  Uiso   1.00
C188   C     0.32332   0.50230   0.98320   0.00000  Uiso   1.00
C189   C     0.27827   0.51734   0.97104   0.00000  Uiso   1.00
C190   C     0.30931   0.48246   1.02752   0.00000  Uiso   1.00
C191   C     0.28091   0.48157   0.04512   0.00000  Uiso   1.00
C192   C     0.21371   0.51538   0.11703   0.00000  Uiso   1.00
C193   C     0.15677   0.51004   0.10402   0.00000  Uiso   1.00
C194   C     0.09384   0.46555   1.08812   0.00000  Uiso   1.00
C195   C     0.23802   0.50288   1.04010   0.00000  Uiso   1.00
C196   C     0.68829   0.19837   0.98920   0.00000  Uiso   1.00
C197   C     0.73579   0.25393   0.95964   0.00000  Uiso   1.00
H198   H     0.86957   0.28838   0.05095   0.00000  Uiso   1.00
C199   C     0.74373   0.22993   0.04410   0.00000  Uiso   1.00
C200   C     0.70961   0.20150   0.03603   0.00000  Uiso   1.00
N201   N     0.91407   0.38298  -0.02479   0.00000  Uiso   1.00
N202   N     0.64204   0.13142   0.00251   0.00000  Uiso   1.00
O203   O     0.92171   0.35538   0.04764   0.00000  Uiso   1.00
O204   O     0.63160   0.17129   0.95139   0.00000  Uiso   1.00
H205   H     0.96545   0.39610  -0.00573   0.00000  Uiso   1.00
H206   H     0.95127   0.39453   0.92358   0.00000  Uiso   1.00
H207   H     0.80907   0.24487   0.04601   0.00000  Uiso   1.00
H208   H     0.85083   0.37400   0.98446   0.00000  Uiso   1.00
H209   H     0.79012   0.33032   0.97931   0.00000  Uiso   1.00
H210   H     0.89717   0.38523   0.94658   0.00000  Uiso   1.00
H211   H     0.68556   0.22436   0.91573   0.00000  Uiso   1.00
H212   H     0.59552   0.12603   1.01956   0.00000  Uiso   1.00
H213   H     0.61085   0.10130   0.06093   0.00000  Uiso   1.00
H214   H     0.74546   0.27343   0.92889   0.00000  Uiso   1.00
H215   H     0.69988   0.18206   0.06680   0.00000  Uiso   1.00
H216   H     0.75938   0.23142   0.08071   0.00000  Uiso   1.00
H217   H     0.65981   0.12297   0.01241   0.00000  Uiso   1.00
C218   C     0.85252   0.29801   0.03551   0.00000  Uiso   1.00
C219   C     0.90206   0.35854   0.01462   0.00000  Uiso   1.00
C220   C     0.94968   0.40339  -0.03371   0.00000  Uiso   1.00
C221   C     0.79456   0.28381   0.01152   0.00000  Uiso   1.00
C222   C     0.86510   0.33414   0.01625   0.00000  Uiso   1.00
C223   C     0.81775   0.27310   0.03291   0.00000  Uiso   1.00
C224   C     0.84207   0.34569  -0.00276   0.00000  Uiso   1.00
C225   C     0.80719   0.32071  -0.00539   0.00000  Uiso   1.00
C226   C     0.70152   0.22560   0.95180   0.00000  Uiso   1.00
C227   C     0.65245   0.16707   0.97962   0.00000  Uiso   1.00
C228   C     0.60843   0.10886   0.01878   0.00000  Uiso   1.00
C229   C     0.75751   0.25599   0.00539   0.00000  Uiso   1.00
C230   C     0.68487   0.51682   0.93591   0.00000  Uiso   1.00
C231   C     0.73092   0.50662   0.91442   0.00000  Uiso   1.00
H232   H     0.79939   0.46275   0.07741   0.00000  Uiso   1.00
C233   C     0.72211   0.51282   0.00888   0.00000  Uiso   1.00
C234   C     0.69447   0.51728  -0.00811   0.00000  Uiso   1.00
N235   N     0.88588   0.50834   0.00998   0.00000  Uiso   1.00
N236   N     0.63491   0.52537  -0.04615   0.00000  Uiso   1.00
O237   O     0.86384   0.49092   0.08832   0.00000  Uiso   1.00
O238   O     0.65588   0.53456   0.87162   0.00000  Uiso   1.00
H239   H     0.92569   0.51467   0.06810   0.00000  Uiso   1.00
H240   H     0.90238   0.46900   0.02588   0.00000  Uiso   1.00
H241   H     0.74837   0.46487   0.04603   0.00000  Uiso   1.00
H242   H     0.85464   0.54709   0.97031   0.00000  Uiso   1.00
H243   H     0.80340   0.54822   0.93787   0.00000  Uiso   1.00
H244   H     0.88257   0.51434   0.97010   0.00000  Uiso   1.00
H245   H     0.69610   0.50964   0.85389   0.00000  Uiso   1.00
H246   H     0.63929   0.57740   0.92996   0.00000  Uiso   1.00
H247   H     0.62854   0.56733  -0.00236   0.00000  Uiso   1.00
H248   H     0.74474   0.50252   0.88380   0.00000  Uiso   1.00
H249   H     0.68154   0.52254   0.02293   0.00000  Uiso   1.00
H250   H     0.72955   0.51452   0.05235   0.00000  Uiso   1.00
H251   H     0.62807   0.50665  -0.01599   0.00000  Uiso   1.00
C252   C     0.80060   0.48150   0.04686   0.00000  Uiso   1.00
C253   C     0.86127   0.50098   0.04336   0.00000  Uiso   1.00
C254   C     0.91327   0.50058   0.02585   0.00000  Uiso   1.00
C255   C     0.77179   0.50628  -0.01107   0.00000  Uiso   1.00
C256   C     0.83087   0.50373   0.02491   0.00000  Uiso   1.00
C257   C     0.77142   0.48276   0.02903   0.00000  Uiso   1.00
C258   C     0.83144   0.52811   0.98602   0.00000  Uiso   1.00
C259   C     0.80215   0.52906   0.96777   0.00000  Uiso   1.00
C260   C     0.70306   0.51065   0.89735   0.00000  Uiso   1.00
C261   C     0.65797   0.52578   0.91781   0.00000  Uiso   1.00
C262   C     0.62420   0.55411  -0.04521   0.00000  Uiso   1.00
C263   C     0.74098   0.50811  -0.02957   0.00000  Uiso   1.00
C264   C     0.17263   0.63442   0.01930   0.00000  Uiso   1.00
C265   C     0.23350   0.67712   0.04035   0.00000  Uiso   1.00
H266   H     0.29770   0.80814   0.91574   0.00000  Uiso   1.00
C267   C     0.20006   0.69632   0.98330   0.00000  Uiso   1.00
C268   C     0.17076   0.66164   0.98825   0.00000  Uiso   1.00
N269   N     0.36986   0.87716   1.04414   0.00000  Uiso   1.00
N270   N     0.11373   0.57847   0.98245   0.00000  Uiso   1.00
O271   O     0.35104   0.86874   0.95461   0.00000  Uiso   1.00
O272   O     0.14142   0.58290   0.06759   0.00000  Uiso   1.00
H273   H     0.37191   0.92805   1.01916   0.00000  Uiso   1.00
H274   H     0.37837   0.92717   0.09131   0.00000  Uiso   1.00
H275   H     0.24848   0.74533   0.91994   0.00000  Uiso   1.00
H276   H     0.33672   0.80705   0.08176   0.00000  Uiso   1.00
H277   H     0.28694   0.74690   0.08689   0.00000  Uiso   1.00
H278   H     0.37176   0.86532   0.07983   0.00000  Uiso   1.00
H279   H     0.20647   0.62264   0.07063   0.00000  Uiso   1.00
H280   H     0.08760   0.53070   0.02536   0.00000  Uiso   1.00
H281   H     0.08458   0.51920   0.95319   0.00000  Uiso   1.00
H282   H     0.25744   0.68210   0.06052   0.00000  Uiso   1.00
H283   H     0.14660   0.65664   0.96901   0.00000  Uiso   1.00
H284   H     0.19764   0.71720   0.96048   0.00000  Uiso   1.00
H285   H     0.11515   0.59010   0.94534   0.00000  Uiso   1.00
C286   C     0.29597   0.79483   0.95317   0.00000  Uiso   1.00
C287   C     0.34867   0.85452   0.99768   0.00000  Uiso   1.00
C288   C     0.38392   0.91881   1.05143   0.00000  Uiso   1.00
C289   C     0.26322   0.74126   1.00420   0.00000  Uiso   1.00
C290   C     0.32127   0.81391   0.99877   0.00000  Uiso   1.00
C291   C     0.26741   0.75898   0.95577   0.00000  Uiso   1.00
C292   C     0.31789   0.79488   1.04598   0.00000  Uiso   1.00
C293   C     0.28916   0.75944   1.04879   0.00000  Uiso   1.00
C294   C     0.20425   0.64284   0.04588   0.00000  Uiso   1.00
C295   C     0.14202   0.59763   0.02550   0.00000  Uiso   1.00
C296   C     0.08500   0.54004   0.98526   0.00000  Uiso   1.00
C297   C     0.23190   0.70433   1.00884   0.00000  Uiso   1.00
C298   C     0.52398   0.68154   0.02784   0.00000  Uiso   1.00
C299   C     0.52597   0.74323   0.03980   0.00000  Uiso   1.00
H300   H     0.41841   0.76144   0.93293   0.00000  Uiso   1.00
C301   C     0.48812   0.69538   0.96493   0.00000  Uiso   1.00
C302   C     0.49948   0.67042   0.98153   0.00000  Uiso   1.00
N303   N     0.47273   0.87698   0.97045   0.00000  Uiso   1.00
N304   N     0.53237   0.62323   1.01296   0.00000  Uiso   1.00
O305   O     0.42791   0.82788   0.91766   0.00000  Uiso   1.00
O306   O     0.54846   0.66110   0.09563   0.00000  Uiso   1.00
H307   H     0.43944   0.89447   0.93187   0.00000  Uiso   1.00
H308   H     0.45068   0.90610   0.00479   0.00000  Uiso   1.00
H309   H     0.43746   0.71591   0.95119   0.00000  Uiso   1.00
H310   H     0.52077   0.85585   0.97871   0.00000  Uiso   1.00
H311   H     0.53945   0.81088   0.99823   0.00000  Uiso   1.00
H312   H     0.49477   0.88648  -0.00227   0.00000  Uiso   1.00
H313   H     0.55555   0.72794   0.09291   0.00000  Uiso   1.00
H314   H     0.52647   0.58497   0.07204   0.00000  Uiso   1.00
H315   H     0.56722   0.60796   1.04846   0.00000  Uiso   1.00
H316   H     0.53625   0.77098   0.06372   0.00000  Uiso   1.00
H317   H     0.48844   0.64211   0.95902   0.00000  Uiso   1.00
H318   H     0.46902   0.68578   0.92943   0.00000  Uiso   1.00
H319   H     0.53096   0.62455   0.97067   0.00000  Uiso   1.00
C320   C     0.44498   0.77247   0.94645   0.00000  Uiso   1.00
C321   C     0.45503   0.83959   0.94601   0.00000  Uiso   1.00
C322   C     0.46034   0.90407   0.96608   0.00000  Uiso   1.00
C323   C     0.48997   0.75953   0.97711   0.00000  Uiso   1.00
C324   C     0.46771   0.81242   0.95525   0.00000  Uiso   1.00
C325   C     0.45597   0.74634   0.95683   0.00000  Uiso   1.00
C326   C     0.50200   0.82553   0.97303   0.00000  Uiso   1.00
C327   C     0.51290   0.79948   0.98388   0.00000  Uiso   1.00
C328   C     0.53696   0.71829   0.05667   0.00000  Uiso   1.00
C329   C     0.53540   0.65498   0.04798   0.00000  Uiso   1.00
C330   C     0.53961   0.59455   1.03525   0.00000  Uiso   1.00
C331   C     0.50141   0.73228   0.99380   0.00000  Uiso   1.00
C332   C     0.49469   0.16024   0.97829   0.00000  Uiso   1.00
C333   C     0.48365   0.21183   0.95918   0.00000  Uiso   1.00
H334   H     0.57294   0.36416   0.06341   0.00000  Uiso   1.00
C335   C     0.51728   0.21756   0.04428   0.00000  Uiso   1.00
C336   C     0.51344   0.18145   0.02885   0.00000  Uiso   1.00
N337   N     0.51533   0.39830  -0.01379   0.00000  Uiso   1.00
N338   N     0.49014   0.09691  -0.00031   0.00000  Uiso   1.00
O339   O     0.55088   0.41464   0.06478   0.00000  Uiso   1.00
O340   O     0.48509   0.11099   0.91164   0.00000  Uiso   1.00
H341   H     0.55143   0.45857  -0.00058   0.00000  Uiso   1.00
H342   H     0.53167   0.43910   0.93040   0.00000  Uiso   1.00
H343   H     0.56152   0.29778   0.05419   0.00000  Uiso   1.00
H344   H     0.46830   0.32385   1.00443   0.00000  Uiso   1.00
H345   H     0.45674   0.25756   0.99563   0.00000  Uiso   1.00
H346   H     0.49770   0.37641   0.95620   0.00000  Uiso   1.00
H347   H     0.46534   0.16032   0.90453   0.00000  Uiso   1.00
H348   H     0.45750   0.04605   0.94508   0.00000  Uiso   1.00
H349   H     0.45806   0.04044   0.01646   0.00000  Uiso   1.00
H350   H     0.47233   0.22327   0.93108   0.00000  Uiso   1.00
H351   H     0.52587   0.17086   0.05616   0.00000  Uiso   1.00
H352   H     0.53181   0.23331   0.08340   0.00000  Uiso   1.00
H353   H     0.49927   0.10743   0.04095   0.00000  Uiso   1.00
C354   C     0.54738   0.34101   0.04937   0.00000  Uiso   1.00
C355   C     0.52994   0.38936   0.02971   0.00000  Uiso   1.00
C356   C     0.52715   0.43774  -0.02626   0.00000  Uiso   1.00
C357   C     0.50834   0.27255   0.02326   0.00000  Uiso   1.00
C358   C     0.52170   0.34909   0.03288   0.00000  Uiso   1.00
C359   C     0.54080   0.30304   0.04439   0.00000  Uiso   1.00
C360   C     0.48880   0.31847   0.01540   0.00000  Uiso   1.00
C361   C     0.48218   0.28056   0.01063   0.00000  Uiso   1.00
C362   C     0.47993   0.17593   0.94370   0.00000  Uiso   1.00
C363   C     0.49005   0.12192   0.96055   0.00000  Uiso   1.00
C364   C     0.47426   0.05544  -0.01501   0.00000  Uiso   1.00
C365   C     0.50252   0.23318   0.00946   0.00000  Uiso   1.00
loop_
_geom_bond_atom_site_label_1
_geom_bond_atom_site_label_2
_geom_bond_distance
_geom_bond_site_symmetry_2
_ccdc_geom_bond_type
C0     O11     1.280   .     A
C0     O12     1.286   .     A
C0     C92     1.495   .     S
Sm1    O5      2.220   .     S
Sm1    O6      2.224   .     S
Sm1    O8      2.239   .     S
Sm1    O10     2.217   .     S
Sm1    O13     2.288   .     S
Sm1    O9      2.239   1_554 S
Sm2    O7      2.342   .     S
Sm2    O11     2.218   .     S
Sm2    O12     2.227   .     S
Sm2    O14     2.266   .     S
Sm2    O16     2.267   .     S
Sm2    O15     2.272   1_556 S
C3     O13     1.270   .     A
C3     C356    1.496   .     S
C3     O14     1.269   1_554 A
C4     O16     1.260   .     A
C4     O15     1.266   1_556 A
C4     C262    1.496   1_556 S
O5     C17     1.283   .     A
O6     C17     1.282   .     A
O7     C18     1.296   .     A
O8     C18     1.248   1_554 A
O9     Sm1     2.239   1_556 S
O9     C19     1.284   1_556 A
O10    C19     1.280   .     A
O14    C3      1.269   1_556 A
O15    Sm2     2.272   1_554 S
O15    C4      1.266   1_554 A
C17    C84     1.490   .     S
C18    C330    1.506   .     S
C18    O8      1.248   1_556 A
C19    O9      1.284   1_554 A
C19    C186    1.495   1_554 S
C20    O32     1.284   .     A
C20    C126    1.490   .     S
C20    O31     1.283   1_655 A
Sm21   O25     2.257   .     S
Sm21   O28     2.321   .     S
Sm21   O30     2.242   .     S
Sm21   O26     2.284   1_655 S
Sm21   O29     2.226   1_556 S
Sm21   O33     2.268   1_655 S
Sm22   O31     2.218   .     S
Sm22   O34     2.246   .     S
Sm22   O36     2.232   .     S
Sm22   O27     2.245   1_455 S
Sm22   O32     2.227   1_455 S
Sm22   O35     2.217   1_554 S
C23    O33     1.266   .     A
C23    C296    1.494   .     S
C23    O34     1.265   1_556 A
C24    O36     1.286   .     A
C24    O35     1.281   1_554 A
C24    C194    1.491   1_554 S
O25    C37     1.270   1_655 A
O26    C37     1.265   .     A
O26    Sm21    2.284   1_455 S
O27    C38     1.271   .     A
O27    Sm22    2.245   1_655 S
O28    C38     1.293   1_556 A
O29    Sm21    2.226   1_554 S
O29    C39     1.280   1_554 A
O30    C39     1.284   .     A
O31    C20     1.283   1_455 A
O32    Sm22    2.227   1_655 S
O33    Sm21    2.268   1_455 S
O34    C23     1.265   1_554 A
O35    Sm22    2.217   1_556 S
O35    C24     1.281   1_556 A
C37    C118    1.500   .     S
C37    O25     1.270   1_455 A
C38    C220    1.494   .     S
C38    O28     1.293   1_554 A
C39    O29     1.280   1_556 A
C39    C254    1.503   1_556 S
C40    O52     1.283   .     A
C40    C152    1.488   .     S
C40    O51     1.283   1_545 A
Sm41   O45     2.255   .     S
Sm41   O48     2.327   .     S
Sm41   O50     2.230   .     S
Sm41   O46     2.266   1_545 S
Sm41   O49     2.230   1_556 S
Sm41   O53     2.282   1_545 S
Sm42   O51     2.215   .     S
Sm42   O54     2.216   .     S
Sm42   O56     2.239   .     S
Sm42   O47     2.231   1_565 S
Sm42   O52     2.213   1_565 S
Sm42   O55     2.213   1_554 S
C43    O53     1.267   .     A
C43    C322    1.488   .     S
C43    O54     1.256   1_556 A
C44    O56     1.286   .     A
C44    O55     1.277   1_554 A
C44    C288    1.491   1_554 S
O45    C57     1.272   1_545 A
O46    C57     1.264   .     A
O46    Sm41    2.266   1_565 S
O47    C58     1.271   .     A
O47    Sm42    2.231   1_545 S
O48    C58     1.292   1_556 A
O49    Sm41    2.230   1_554 S
O49    C59     1.282   1_554 A
O50    C59     1.281   .     A
O51    C40     1.283   1_565 A
O52    Sm42    2.213   1_545 S
O53    Sm41    2.282   1_565 S
O54    C43     1.256   1_554 A
O55    Sm42    2.213   1_556 S
O55    C44     1.277   1_556 A
C57    C160    1.490   .     S
C57    O45     1.272   1_565 A
C58    C364    1.492   .     S
C58    O48     1.292   1_554 A
C59    O49     1.282   1_556 A
C59    C228    1.496   1_556 S
C60    C64     1.406   .     A
C60    C90     1.404   .     A
C60    C91     1.481   .     S
C61    H78     1.083   .     S
C61    C90     1.399   .     A
C61    C93     1.406   .     A
H62    C82     1.083   .     S
C63    C64     1.399   .     A
C63    H80     1.083   .     S
C63    C93     1.405   .     A
C64    H79     1.083   .     S
N65    H74     1.043   .     S
N65    C83     1.376   .     S
N65    C84     1.464   .     S
N66    H81     1.045   .     S
N66    C91     1.374   .     S
N66    C92     1.464   .     S
O67    C83     1.219   .     D
O68    C91     1.221   .     D
H69    C84     1.114   .     S
H70    C84     1.112   .     S
H71    C87     1.083   .     S
H72    C88     1.081   .     S
H73    C89     1.082   .     S
H75    C90     1.084   .     S
H76    C92     1.113   .     S
H77    C92     1.111   .     S
C82    C86     1.410   .     A
C82    C87     1.400   .     A
C83    C86     1.494   .     S
C85    C87     1.402   .     A
C85    C89     1.405   .     A
C85    C93     1.486   .     S
C86    C88     1.407   .     A
C88    C89     1.401   .     A
C94    C124    1.404   .     A
C94    C125    1.483   .     S
C94    C98     1.405   1_655 A
C95    H112    1.083   .     S
C95    C124    1.395   .     A
C95    C127    1.404   1_655 A
H96    C116    1.083   .     S
C97    C98     1.402   .     A
C97    H114    1.083   .     S
C97    C127    1.409   .     A
C98    H113    1.083   .     S
C98    C94     1.405   1_455 A
N99    H108    1.045   .     S
N99    C117    1.380   .     S
N99    C118    1.472   .     S
N100   H115    1.044   .     S
N100   C125    1.374   .     S
N100   C126    1.466   .     S
O101   C117    1.222   .     D
O102   C125    1.220   .     D
H103   C118    1.110   .     S
H104   C118    1.112   .     S
H105   C121    1.083   .     S
H106   C122    1.081   .     S
H107   C123    1.083   1_655 S
H109   C124    1.083   .     S
H110   C126    1.111   .     S
H111   C126    1.110   .     S
C116   C120    1.410   .     A
C116   C121    1.397   .     A
C117   C120    1.493   .     S
C119   C121    1.403   .     A
C119   C123    1.407   .     A
C119   C127    1.488   .     S
C120   C122    1.407   .     A
C122   C123    1.402   .     A
C123   H107    1.083   1_455 S
C127   C95     1.404   1_455 A
C128   C132    1.406   .     A
C128   C158    1.408   .     A
C128   C159    1.490   .     S
C129   H146    1.083   .     S
C129   C158    1.397   .     A
C129   C161    1.401   .     A
H130   C150    1.083   .     S
C131   C132    1.397   .     A
C131   H148    1.083   .     S
C131   C161    1.405   .     A
C132   H147    1.081   .     S
N133   H142    1.043   .     S
N133   C151    1.376   .     S
N133   C152    1.465   .     S
N134   H149    1.041   .     S
N134   C159    1.375   .     S
N134   C160    1.466   .     S
O135   C151    1.221   .     D
O136   C159    1.217   .     D
H137   C152    1.109   .     S
H138   C152    1.112   .     S
H139   C155    1.083   .     S
H140   C156    1.081   .     S
H141   C157    1.084   .     S
H143   C158    1.083   .     S
H144   C160    1.109   .     S
H145   C160    1.111   1_545 S
C150   C154    1.408   .     A
C150   C155    1.394   .     A
C151   C154    1.488   .     S
C153   C155    1.401   .     A
C153   C157    1.405   .     A
C153   C161    1.481   1_545 S
C154   C156    1.409   .     A
C156   C157    1.399   .     A
C160   H145    1.111   1_565 S
C161   C153    1.481   1_565 S
C162   C192    1.407   .     A
C162   C193    1.484   .     S
C162   C166    1.408   1_554 A
C163   H180    1.083   .     S
C163   C192    1.397   .     A
C163   C195    1.405   1_554 A
H164   C184    1.083   .     S
C165   C166    1.394   .     A
C165   H182    1.083   .     S
C165   C195    1.401   .     A
C166   H181    1.078   .     S
C166   C162    1.408   1_556 A
N167   C185    1.376   .     S
N167   C186    1.461   .     S
N167   H176    1.043   1_556 S
N168   H183    1.044   .     S
N168   C194    1.457   .     S
N168   C193    1.433   1_556 S
O169   C185    1.216   .     D
O170   C193    1.221   .     D
H171   C186    1.110   .     S
H172   C186    1.113   .     S
H173   C189    1.083   .     S
H174   C190    1.083   1_554 S
H175   C191    1.083   .     S
H176   N167    1.043   1_554 S
H177   C192    1.084   .     S
H178   C194    1.111   1_554 S
H179   C194    1.111   .     S
C184   C188    1.404   .     A
C184   C189    1.397   .     A
C185   C188    1.479   .     S
C186   C19     1.495   1_556 S
C187   C189    1.406   .     A
C187   C195    1.480   .     S
C187   C191    1.404   1_556 A
C188   C190    1.402   .     A
C190   H174    1.083   1_556 S
C190   C191    1.396   1_556 A
C191   C187    1.404   1_554 A
C191   C190    1.396   1_554 A
C193   N168    1.433   1_554 S
C194   H178    1.111   1_556 S
C194   C24     1.491   1_556 S
C195   C163    1.405   1_556 A
C196   C226    1.407   .     A
C196   C227    1.482   .     S
C196   C200    1.403   1_556 A
C197   H214    1.083   .     S
C197   C226    1.400   .     A
C197   C229    1.408   1_556 A
H198   C218    1.083   .     S
C199   C200    1.396   .     A
C199   H216    1.082   .     S
C199   C229    1.407   .     A
C200   H215    1.083   .     S
C200   C196    1.403   1_554 A
N201   C219    1.374   .     S
N201   C220    1.467   .     S
N201   H210    1.044   1_554 S
N202   H217    1.045   .     S
N202   C228    1.461   .     S
N202   C227    1.439   1_554 S
O203   C219    1.220   .     D
O204   C227    1.219   .     D
H205   C220    1.110   .     S
H206   C220    1.112   1_556 S
H207   C223    1.083   .     S
H208   C224    1.082   1_556 S
H209   C225    1.083   1_556 S
H210   N201    1.044   1_556 S
H211   C226    1.083   .     S
H212   C228    1.111   1_556 S
H213   C228    1.111   .     S
C218   C222    1.405   .     A
C218   C223    1.396   .     A
C219   C222    1.488   .     S
C220   H206    1.112   1_554 S
C221   C223    1.407   .     A
C221   C225    1.407   .     A
C221   C229    1.490   .     S
C222   C224    1.407   .     A
C224   C225    1.400   .     A
C224   H208    1.082   1_554 S
C225   H209    1.083   1_554 S
C227   N202    1.439   1_556 S
C228   H212    1.111   1_554 S
C228   C59     1.496   1_554 S
C229   C197    1.408   1_554 A
C230   C260    1.408   .     A
C230   C261    1.489   .     S
C230   C234    1.407   1_556 A
C231   H248    1.083   .     S
C231   C260    1.400   .     A
C231   C263    1.405   1_556 A
H232   C252    1.083   .     S
C233   C234    1.400   .     A
C233   H250    1.083   .     S
C233   C263    1.405   .     A
C234   H249    1.081   .     S
C234   C230    1.407   1_554 A
N235   C253    1.381   .     S
N235   C254    1.466   .     S
N235   H244    1.042   1_554 S
N236   H251    1.045   .     S
N236   C262    1.465   .     S
N236   C261    1.436   1_554 S
O237   C253    1.218   .     D
O238   C261    1.222   .     D
H239   C254    1.112   .     S
H240   C254    1.112   .     S
H241   C257    1.084   .     S
H242   C258    1.082   .     S
H243   C259    1.083   .     S
H244   N235    1.042   1_556 S
H245   C260    1.083   .     S
H246   C262    1.111   1_556 S
H247   C262    1.109   .     S
C252   C256    1.409   .     A
C252   C257    1.399   .     A
C253   C256    1.488   .     S
C254   C39     1.503   1_554 S
C255   C257    1.404   .     A
C255   C263    1.486   .     S
C255   C259    1.406   1_554 A
C256   C258    1.405   1_554 A
C258   C259    1.400   .     A
C258   C256    1.405   1_556 A
C259   C255    1.406   1_556 A
C261   N236    1.436   1_556 S
C262   H246    1.111   1_554 S
C262   C4      1.496   1_554 S
C263   C231    1.405   1_554 A
C264   C294    1.404   .     A
C264   C295    1.482   .     S
C264   C268    1.405   1_554 A
C265   H282    1.082   .     S
C265   C294    1.395   .     A
C265   C297    1.406   1_554 A
H266   C286    1.084   .     S
C267   C268    1.402   .     A
C267   H284    1.083   .     S
C267   C297    1.409   .     A
C268   H283    1.082   .     S
C268   C264    1.405   1_556 A
N269   C287    1.375   .     S
N269   C288    1.460   .     S
N269   H278    1.042   1_556 S
N270   H285    1.045   .     S
N270   C296    1.465   .     S
N270   C295    1.441   1_556 S
O271   C287    1.224   .     D
O272   C295    1.221   .     D
H273   C288    1.112   .     S
H274   C288    1.111   1_554 S
H275   C291    1.082   .     S
H276   C292    1.077   1_554 S
H277   C293    1.082   1_554 S
H278   N269    1.042   1_554 S
H279   C294    1.083   .     S
H280   C296    1.096   1_554 S
H281   C296    1.110   .     S
C286   C290    1.410   .     A
C286   C291    1.400   .     A
C287   C290    1.494   .     S
C288   H274    1.111   1_556 S
C288   C44     1.491   1_556 S
C289   C291    1.406   .     A
C289   C293    1.405   .     A
C289   C297    1.492   .     S
C290   C292    1.409   .     A
C292   C293    1.395   .     A
C292   H276    1.077   1_556 S
C293   H277    1.082   1_556 S
C295   N270    1.441   1_554 S
C296   H280    1.096   1_556 S
C297   C265    1.406   1_556 A
C298   C328    1.406   .     A
C298   C329    1.495   .     S
C298   C302    1.408   1_554 A
C299   H316    1.082   .     S
C299   C328    1.396   .     A
C299   C331    1.405   1_554 A
H300   C320    1.083   .     S
C301   C302    1.407   .     A
C301   H318    1.083   .     S
C301   C331    1.409   .     A
C302   H317    1.081   .     S
C302   C298    1.408   1_556 A
N303   C321    1.373   .     S
N303   C322    1.464   .     S
N303   H312    1.044   1_556 S
N304   H319    1.045   .     S
N304   C330    1.472   .     S
N304   C329    1.439   1_556 S
O305   C321    1.220   .     D
O306   C329    1.223   .     D
H307   C322    1.110   .     S
H308   C322    1.103   1_554 S
H309   C325    1.082   .     S
H310   C326    1.082   .     S
H311   C327    1.083   .     S
H312   N303    1.044   1_554 S
H313   C328    1.084   .     S
H314   C330    1.115   1_554 S
H315   C330    1.111   .     S
C320   C324    1.407   .     A
C320   C325    1.400   .     A
C321   C324    1.491   .     S
C322   H308    1.103   1_556 S
C323   C325    1.407   .     A
C323   C327    1.409   .     A
C323   C331    1.495   .     S
C324   C326    1.407   .     A
C326   C327    1.397   .     A
C329   N304    1.439   1_554 S
C330   H314    1.115   1_556 S
C331   C299    1.405   1_556 A
C332   C362    1.404   .     A
C332   C363    1.482   .     S
C332   C336    1.408   1_556 A
C333   H350    1.083   .     S
C333   C362    1.394   .     A
C333   C365    1.405   1_556 A
H334   C354    1.083   .     S
C335   C336    1.400   .     A
C335   H352    1.083   .     S
C335   C365    1.405   .     A
C336   H351    1.081   .     S
C336   C332    1.408   1_554 A
N337   C355    1.374   .     S
N337   C356    1.464   .     S
N337   H346    1.044   1_554 S
N338   H353    1.043   .     S
N338   C364    1.458   .     S
N338   C363    1.436   1_554 S
O339   C355    1.220   .     D
O340   C363    1.221   .     D
H341   C356    1.111   .     S
H342   C356    1.106   1_556 S
H343   C359    1.083   .     S
H344   C360    1.082   1_556 S
H345   C361    1.082   1_556 S
H346   N337    1.044   1_556 S
H347   C362    1.083   .     S
H348   C364    1.113   1_556 S
H349   C364    1.111   .     S
C354   C358    1.405   .     A
C354   C359    1.399   .     A
C355   C358    1.480   .     S
C356   H342    1.106   1_554 S
C357   C359    1.406   .     A
C357   C361    1.405   .     A
C357   C365    1.483   .     S
C358   C360    1.402   .     A
C360   C361    1.396   .     A
C360   H344    1.082   1_554 S
C361   H345    1.082   1_554 S
C363   N338    1.436   1_556 S
C364   H348    1.113   1_554 S
C365   C333    1.405   1_554 A
