data_kag+N205+E229
_audit_creation_date              2025-01-21
_audit_creation_method            'Materials Studio'
_symmetry_space_group_name_H-M    'P1'
_symmetry_Int_Tables_number       1
_symmetry_cell_setting            triclinic
loop_
_symmetry_equiv_pos_as_xyz
  x,y,z
_cell_length_a                    51.0739
_cell_length_b                    52.6119
_cell_length_c                    20.7913
_cell_angle_alpha                 102.9764
_cell_angle_beta                  86.6191
_cell_angle_gamma                 120.9528
loop_
_atom_site_label
_atom_site_type_symbol
_atom_site_fract_x
_atom_site_fract_y
_atom_site_fract_z
_atom_site_U_iso_or_equiv
_atom_site_adp_type
_atom_site_occupancy
Y0     Y     0.51547   0.46126  -0.04162   0.00000  Uiso   1.00
Y1     Y     0.49391   0.54339   1.04969   0.00000  Uiso   1.00
C2     C     0.53239   0.60136   0.03999   0.00000  Uiso   1.00
C3     C     0.52085   0.50962   0.10317   0.00000  Uiso   1.00
C4     C     0.57049   0.47433   0.91205   0.00000  Uiso   1.00
C5     C     0.47814   0.40240   0.96349   0.00000  Uiso   1.00
C6     C     0.48845   0.49505   0.90493   0.00000  Uiso   1.00
C7     C     0.43983   0.53365   0.09663   0.00000  Uiso   1.00
O8     O     0.50735   0.58374   1.00601   0.00000  Uiso   1.00
O9     O     0.53801   0.58879   0.07741   0.00000  Uiso   1.00
O10    O     0.51426   0.49588   0.04285   0.00000  Uiso   1.00
O11    O     0.51426   0.53036   0.12224   0.00000  Uiso   1.00
O12    O     0.54665   0.46357   0.87549   0.00000  Uiso   1.00
O13    O     0.56601   0.47895  -0.02734   0.00000  Uiso   1.00
O14    O     0.50246   0.42026  -0.00020   0.00000  Uiso   1.00
O15    O     0.47270   0.41512   0.92602   0.00000  Uiso   1.00
O16    O     0.49397   0.50804   0.96567   0.00000  Uiso   1.00
O17    O     0.49472   0.47407   0.88623   0.00000  Uiso   1.00
O18    O     0.46316   0.54246   0.13305   0.00000  Uiso   1.00
O19    O     0.44425   0.52901   1.03593   0.00000  Uiso   1.00
Y20    Y     0.04995   0.52619  -0.01955   0.00000  Uiso   1.00
Y21    Y     0.94213   0.48118   1.02401   0.00000  Uiso   1.00
C22    C     0.93109   0.52432   1.00789   0.00000  Uiso   1.00
C23    C     0.00499   0.51240   0.10034   0.00000  Uiso   1.00
C24    C     0.08882   0.58178   0.95601   0.00000  Uiso   1.00
C25    C     0.07367   0.49061  -0.01983   0.00000  Uiso   1.00
C26    C    -0.01461   0.48655   0.90423   0.00000  Uiso   1.00
C27    C     0.89275   0.43084   0.04932   0.00000  Uiso   1.00
O28    O     0.92413   0.50059   0.96375   0.00000  Uiso   1.00
O29    O     0.94420   0.52584   0.05928   0.00000  Uiso   1.00
O30    O     0.01239   0.52242   0.04778   0.00000  Uiso   1.00
O31    O     0.97658   0.49688   0.10869   0.00000  Uiso   1.00
O32    O     0.07034   0.55897   0.91302   0.00000  Uiso   1.00
O33    O     0.08735   0.57588   0.01215   0.00000  Uiso   1.00
O34    O     0.07620   0.51084   0.02967   0.00000  Uiso   1.00
O35    O     0.05866   0.48869   0.93158   0.00000  Uiso   1.00
O36    O     0.97772   0.47812   0.95859   0.00000  Uiso   1.00
O37    O     0.01377   0.50242   0.89577   0.00000  Uiso   1.00
O38    O     0.90744   0.45548   0.09180   0.00000  Uiso   1.00
O39    O     0.90385   0.43207   0.99342   0.00000  Uiso   1.00
Y40    Y     0.53879   0.05718   0.01904   0.00000  Uiso   1.00
Y41    Y     0.47413   0.94639   1.01315   0.00000  Uiso   1.00
C42    C     0.41787   0.92668   1.05952   0.00000  Uiso   1.00
C43    C     0.50631   0.01155   0.11011   0.00000  Uiso   1.00
C44    C     0.53094   0.10433   1.02280   0.00000  Uiso   1.00
C45    C     0.59529   0.06767  -0.00770   0.00000  Uiso   1.00
C46    C     0.49925  -0.00787   0.92136   0.00000  Uiso   1.00
C47    C     0.48824   0.90258  -0.02156   0.00000  Uiso   1.00
O48    O     0.44093   0.93256   1.09306   0.00000  Uiso   1.00
O49    O     0.42421   0.93193   0.00259   0.00000  Uiso   1.00
O50    O     0.52059   0.03990   0.11160   0.00000  Uiso   1.00
O51    O     0.51073   0.99385   0.06431   0.00000  Uiso   1.00
O52    O     0.52213   0.08208   0.97344   0.00000  Uiso   1.00
O53    O     0.54401   0.10220   0.06909   0.00000  Uiso   1.00
O54    O     0.58764   0.07400   0.04973   0.00000  Uiso   1.00
O55    O     0.57350   0.05524   0.94872   0.00000  Uiso   1.00
O56    O     0.48412   0.96376   0.91927   0.00000  Uiso   1.00
O57    O     0.49950   0.01041   0.97318   0.00000  Uiso   1.00
O58    O     0.49881   0.92282   0.03163   0.00000  Uiso   1.00
O59    O     0.47050   0.90513   0.94426   0.00000  Uiso   1.00
C60    C     0.55679   0.51373   0.26228   0.00000  Uiso   1.00
C61    C     0.56865   0.49474   0.23961   0.00000  Uiso   1.00
C62    C     0.56387   0.47966   0.17311   0.00000  Uiso   1.00
C63    C     0.54748   0.48364   0.12878   0.00000  Uiso   1.00
C64    C     0.53622   0.50326   0.15015   0.00000  Uiso   1.00
C65    C     0.54067   0.51793   0.21746   0.00000  Uiso   1.00
C66    C     0.56061   0.52906   0.33405   0.00000  Uiso   1.00
H67    H     0.58123   0.49130   0.27350   0.00000  Uiso   1.00
H68    H     0.57293   0.46489   0.15586   0.00000  Uiso   1.00
H69    H     0.54380   0.47154   0.07798   0.00000  Uiso   1.00
H70    H     0.53171   0.53276   0.23544   0.00000  Uiso   1.00
H71    H     0.57735   0.52674   0.36045   0.00000  Uiso   1.00
H72    H     0.56954   0.55372   0.33899   0.00000  Uiso   1.00
C73    C     0.46008   0.49637   0.74223   0.00000  Uiso   1.00
C74    C     0.47283   0.48960   0.78900   0.00000  Uiso   1.00
C75    C     0.45862   0.48286   0.66994   0.00000  Uiso   1.00
C76    C     0.47887   0.49524   0.56671   0.00000  Uiso   1.00
C77    C     0.50651   0.51851   0.53768   0.00000  Uiso   1.00
C78    C     0.44958   0.51662   0.76339   0.00000  Uiso   1.00
C79    C     0.45217   0.53018   0.83049   0.00000  Uiso   1.00
C80    C     0.47539   0.50304   0.85667   0.00000  Uiso   1.00
H81    H     0.43950   0.52194   0.72790   0.00000  Uiso   1.00
H82    H     0.44403   0.54580   0.84667   0.00000  Uiso   1.00
H83    H     0.46710   0.53442   0.92821   0.00000  Uiso   1.00
H84    H     0.48114   0.47412   0.77237   0.00000  Uiso   1.00
H85    H     0.43512   0.47289   0.64779   0.00000  Uiso   1.00
C86    C     0.53409   0.52719   0.43368   0.00000  Uiso   1.00
C87    C     0.50446   0.50733   0.46297   0.00000  Uiso   1.00
H88    H     0.47867   0.47341   0.55515   0.00000  Uiso   1.00
H89    H     0.50739   0.54063   0.54941   0.00000  Uiso   1.00
H90    H     0.52762   0.52177   0.55991   0.00000  Uiso   1.00
H91    H     0.45752   0.49149   0.54453   0.00000  Uiso   1.00
H92    H     0.46390   0.46438   0.66277   0.00000  Uiso   1.00
H93    H     0.53879   0.55088   0.44379   0.00000  Uiso   1.00
H94    H     0.55295   0.52684   0.45696   0.00000  Uiso   1.00
N95    N     0.53089   0.51488   0.36247   0.00000  Uiso   1.00
N96    N     0.48104   0.50677   0.63816   0.00000  Uiso   1.00
C97    C     0.46519   0.52360   0.87683   0.00000  Uiso   1.00
C98    C     0.95184   0.48683   0.74655   0.00000  Uiso   1.00
C99    C     0.92193   0.46192   0.74317   0.00000  Uiso   1.00
C100   C     0.91247   0.44567   0.79309   0.00000  Uiso   1.00
C101   C     0.93284   0.45390   0.84643   0.00000  Uiso   1.00
C102   C     0.96274   0.47891   0.85112   0.00000  Uiso   1.00
C103   C     0.97199   0.49535   0.80095   0.00000  Uiso   1.00
C104   C     0.96217   0.50430   0.69261   0.00000  Uiso   1.00
H105   H     0.90598   0.45510   0.70185   0.00000  Uiso   1.00
H106   H     0.88947   0.42626   0.78980   0.00000  Uiso   1.00
H107   H     0.92551   0.44020   0.88279   0.00000  Uiso   1.00
H108   H     0.99511   0.51456   0.80360   0.00000  Uiso   1.00
H109   H     0.94537   0.51091   0.68433   0.00000  Uiso   1.00
H110   H     0.98475   0.52552   0.70816   0.00000  Uiso   1.00
C111   C     0.03935   0.50674   0.25023   0.00000  Uiso   1.00
C112   C     0.01821   0.50099   0.20056   0.00000  Uiso   1.00
C113   C     0.02895   0.48939   0.30442   0.00000  Uiso   1.00
C114   C     0.00304   0.48468   0.40615   0.00000  Uiso   1.00
C115   C     0.99170   0.50062   0.46134   0.00000  Uiso   1.00
C116   C     0.07025   0.52897   0.24893   0.00000  Uiso   1.00
C117   C     0.07968   0.54563   0.19982   0.00000  Uiso   1.00
C118   C     0.02770   0.51743   0.15021   0.00000  Uiso   1.00
H119   H     0.08700   0.53380   0.28651   0.00000  Uiso   1.00
H120   H     0.10342   0.56317   0.19996   0.00000  Uiso   1.00
H121   H     0.06615   0.55394   0.11497   0.00000  Uiso   1.00
H122   H    -0.00564   0.48377   0.20153   0.00000  Uiso   1.00
H123   H     0.04901   0.49156   0.32901   0.00000  Uiso   1.00
C124   C     0.97362   0.50183   0.57791   0.00000  Uiso   1.00
C125   C    -0.01849   0.48435   0.51867   0.00000  Uiso   1.00
H126   H    -0.01600   0.46108   0.38584   0.00000  Uiso   1.00
H127   H     1.01056   0.52450   0.47979   0.00000  Uiso   1.00
H128   H     0.97214   0.50084   0.44131   0.00000  Uiso   1.00
H129   H     0.02197   0.48376   0.42733   0.00000  Uiso   1.00
H130   H     0.01300   0.46483   0.28243   0.00000  Uiso   1.00
H131   H     0.99408   0.52497   0.59452   0.00000  Uiso   1.00
H132   H     0.95433   0.50381   0.56275   0.00000  Uiso   1.00
N133   N     0.96479   0.48558   0.63155   0.00000  Uiso   1.00
N134   N     0.01381   0.50144   0.35323   0.00000  Uiso   1.00
C135   C     0.05853   0.54013   0.15117   0.00000  Uiso   1.00
C136   C     0.46262   0.97727   0.25073   0.00000  Uiso   1.00
C137   C     0.43766   0.98139   0.24779   0.00000  Uiso   1.00
C138   C     0.43501   0.99462   0.19926   0.00000  Uiso   1.00
C139   C     0.45741   1.00420   0.15387   0.00000  Uiso   1.00
C140   C     0.48214   0.99974   0.15554   0.00000  Uiso   1.00
C141   C     0.48455   0.98596   0.20343   0.00000  Uiso   1.00
C142   C     0.46656   0.96536   0.30641   0.00000  Uiso   1.00
H143   H     0.42044   0.97466   0.28357   0.00000  Uiso   1.00
H144   H     0.41583   0.99790   0.19743   0.00000  Uiso   1.00
H145   H     0.45551   0.01513   0.11746   0.00000  Uiso   1.00
H146   H     0.50396   0.98300   0.20511   0.00000  Uiso   1.00
H147   H     0.44545   0.94321   0.30757   0.00000  Uiso   1.00
H148   H     0.48622   0.96167   0.29888   0.00000  Uiso   1.00
C149   C     0.52947   0.02664   0.77330   0.00000  Uiso   1.00
C150   C     0.51282   0.01884   0.82905   0.00000  Uiso   1.00
C151   C     0.51928   0.03689   0.72327   0.00000  Uiso   1.00
C152   C     0.50174   0.02108   0.60730   0.00000  Uiso   1.00
C153   C     0.48752   0.99341   0.54904   0.00000  Uiso   1.00
C154   C     0.55341   0.02085   0.75946   0.00000  Uiso   1.00
C155   C     0.55878   0.00490   0.79705   0.00000  Uiso   1.00
C156   C     0.51831   0.00291   0.86691   0.00000  Uiso   1.00
H157   H     0.56701   0.02756   0.71778   0.00000  Uiso   1.00
H158   H     0.57650  -0.00051   0.78463   0.00000  Uiso   1.00
H159   H     0.54420   0.98162   0.87642   0.00000  Uiso   1.00
H160   H     0.49443   0.02337   0.84048   0.00000  Uiso   1.00
H161   H     0.53949   0.05721   0.71054   0.00000  Uiso   1.00
C162   C     0.47518   0.97692   0.42505   0.00000  Uiso   1.00
C163   C     0.48543   0.00289   0.48627   0.00000  Uiso   1.00
H164   H     0.48679   0.03096   0.61768   0.00000  Uiso   1.00
H165   H     0.50181   0.98276   0.54138   0.00000  Uiso   1.00
H166   H     0.46423   0.97640   0.56022   0.00000  Uiso   1.00
H167   H     0.52451   0.03848   0.59460   0.00000  Uiso   1.00
H168   H     0.50220   0.04321   0.74338   0.00000  Uiso   1.00
H169   H     0.49259   0.97001   0.41705   0.00000  Uiso   1.00
H170   H     0.45274   0.95725   0.43231   0.00000  Uiso   1.00
N171   N     0.47221   0.98766   0.36851   0.00000  Uiso   1.00
N172   N     0.50530   0.01149   0.66527   0.00000  Uiso   1.00
C173   C     0.54065  -0.00492   0.84931   0.00000  Uiso   1.00
C174   C     0.36114   0.52442   0.10381   0.00000  Uiso   1.00
C175   C     0.35665   0.52561   0.17152   0.00000  Uiso   1.00
C176   C     0.37873   0.52849   0.21380   0.00000  Uiso   1.00
C177   C     0.40574   0.53077   0.18932   0.00000  Uiso   1.00
C178   C     0.41076   0.52991   0.12196   0.00000  Uiso   1.00
C179   C     0.38831   0.52664   0.07939   0.00000  Uiso   1.00
C180   C     0.33789   0.52245   0.05858   0.00000  Uiso   1.00
H181   H     0.33603   0.52428   0.19157   0.00000  Uiso   1.00
H182   H     0.37497   0.52907   0.26576   0.00000  Uiso   1.00
H183   H     0.42275   0.53331   0.22296   0.00000  Uiso   1.00
H184   H     0.39230   0.52661   1.02757   0.00000  Uiso   1.00
H185   H     0.33979   0.54504   0.06955   0.00000  Uiso   1.00
H186   H     0.34263   0.51702   1.00588   0.00000  Uiso   1.00
C187   C     0.12443   0.46221   0.01941   0.00000  Uiso   1.00
C188   C     0.11064   0.47980   0.02453   0.00000  Uiso   1.00
C189   C     0.15129   0.47195   0.06514   0.00000  Uiso   1.00
C190   C     0.20233   0.48013   0.06529   0.00000  Uiso   1.00
C191   C     0.22949   0.48584   0.02310   0.00000  Uiso   1.00
C192   C     0.11342   0.43546   0.96959   0.00000  Uiso   1.00
C193   C     0.08961   0.42679   0.92431   0.00000  Uiso   1.00
C194   C     0.08693   0.47134  -0.02168   0.00000  Uiso   1.00
H195   H     0.12362   0.42154   0.96537   0.00000  Uiso   1.00
H196   H     0.08144   0.40629   0.88562   0.00000  Uiso   1.00
H197   H     0.05834   0.43777   0.89213   0.00000  Uiso   1.00
H198   H     0.11889   0.50040   0.06307   0.00000  Uiso   1.00
H199   H     0.14512   0.45339   0.09095   0.00000  Uiso   1.00
C200   C     0.28393   0.49691   0.02692   0.00000  Uiso   1.00
C201   C     0.25450   0.48698   0.06257   0.00000  Uiso   1.00
H202   H     0.20981   0.49935   0.10944   0.00000  Uiso   1.00
H203   H     0.22203   0.46726   0.97771   0.00000  Uiso   1.00
H204   H     0.23845   0.50781   0.00840   0.00000  Uiso   1.00
H205   H     0.19397   0.45858   0.08159   0.00000  Uiso   1.00
H206   H     0.15674   0.49293   0.10307   0.00000  Uiso   1.00
H207   H     0.27981   0.47980   0.98021   0.00000  Uiso   1.00
H208   H     0.29127   0.51917   0.01509   0.00000  Uiso   1.00
N209   N     0.30702   0.49907   0.06989   0.00000  Uiso   1.00
N210   N     0.17791   0.47773   0.02629   0.00000  Uiso   1.00
C211   C     0.07658   0.44473   0.92822   0.00000  Uiso   1.00
C212   C     0.82483   0.35061   1.03036   0.00000  Uiso   1.00
C213   C     0.81132   0.35359   0.09023   0.00000  Uiso   1.00
C214   C     0.82476   0.38128   0.13674   0.00000  Uiso   1.00
C215   C     0.85155   0.40633   0.12365   0.00000  Uiso   1.00
C216   C     0.86518   0.40388   0.06365   0.00000  Uiso   1.00
C217   C     0.85180   0.37587   1.01721   0.00000  Uiso   1.00
C218   C     0.80996   0.32065   0.98084   0.00000  Uiso   1.00
H219   H     0.79041   0.33439   0.10091   0.00000  Uiso   1.00
H220   H     0.81427   0.38341   0.18286   0.00000  Uiso   1.00
H221   H     0.86141   0.42772   0.16009   0.00000  Uiso   1.00
H222   H     0.86223   0.37377   0.97092   0.00000  Uiso   1.00
H223   H     0.78713   0.31573   0.96454   0.00000  Uiso   1.00
H224   H     0.82360   0.32163   0.93676   0.00000  Uiso   1.00
C225   C     0.68165   0.10926  -0.00025   0.00000  Uiso   1.00
C226   C     0.65162   0.10098   0.01570   0.00000  Uiso   1.00
C227   C     0.70828   0.13890   0.03578   0.00000  Uiso   1.00
C228   C     0.74441   0.19018   0.02564   0.00000  Uiso   1.00
C229   C     0.75473   0.21146  -0.02159   0.00000  Uiso   1.00
C230   C     0.68649   0.09047  -0.05295   0.00000  Uiso   1.00
C231   C     0.66160   0.06413  -0.09000   0.00000  Uiso   1.00
C232   C     0.62658   0.07489  -0.02230   0.00000  Uiso   1.00
H233   H     0.70951   0.09645  -0.06578   0.00000  Uiso   1.00
H234   H     0.66547   0.04981   0.86925   0.00000  Uiso   1.00
H235   H     0.61267   0.03630   0.89494   0.00000  Uiso   1.00
H236   H     0.64768   0.11559   0.05564   0.00000  Uiso   1.00
H237   H     0.72595   0.13494   0.05223   0.00000  Uiso   1.00
C238   C     0.78596   0.26669   0.97248   0.00000  Uiso   1.00
C239   C     0.77890   0.24361   0.01362   0.00000  Uiso   1.00
H240   H     0.73492   0.19878   0.06890   0.00000  Uiso   1.00
H241   H     0.76441   0.20332   0.93495   0.00000  Uiso   1.00
H242   H     0.73454   0.21147   0.96108   0.00000  Uiso   1.00
H243   H     0.76427   0.18963   0.04301   0.00000  Uiso   1.00
H244   H     0.70061   0.14887   0.08044   0.00000  Uiso   1.00
H245   H     0.79665   0.26194   0.92679   0.00000  Uiso   1.00
H246   H     0.76416   0.26484   0.95913   0.00000  Uiso   1.00
N247   N     0.80702   0.29705   0.01205   0.00000  Uiso   1.00
N248   N     0.72094   0.15967  -0.00903   0.00000  Uiso   1.00
C249   C     0.63173   0.05657  -0.07543   0.00000  Uiso   1.00
C250   C     0.89135   0.56188  -0.04163   0.00000  Uiso   1.00
C251   C     0.90819   0.59111  -0.00053   0.00000  Uiso   1.00
C252   C     0.93277   0.59860   0.04113   0.00000  Uiso   1.00
C253   C     0.94054   0.57691   0.04275   0.00000  Uiso   1.00
C254   C     0.92409   0.54760   1.00181   0.00000  Uiso   1.00
C255   C     0.89977   0.54031   0.95880   0.00000  Uiso   1.00
C256   C     0.86391   0.55373   0.91658   0.00000  Uiso   1.00
H257   H     0.90204   0.60799  -0.00028   0.00000  Uiso   1.00
H258   H     0.94559   0.62114   0.07290   0.00000  Uiso   1.00
H259   H     0.95933   0.58296   0.07629   0.00000  Uiso   1.00
H260   H     0.88669   0.51759   0.92780   0.00000  Uiso   1.00
H261   H     0.87092   0.57100   0.88651   0.00000  Uiso   1.00
H262   H     0.85504   0.53105   0.88225   0.00000  Uiso   1.00
C263   C     0.65233   0.49194   0.90609   0.00000  Uiso   1.00
C264   C     0.62496   0.48917   0.93056   0.00000  Uiso   1.00
C265   C     0.67827   0.49988  -0.04741   0.00000  Uiso   1.00
C266   C     0.73341   0.52939  -0.02754   0.00000  Uiso   1.00
C267   C     0.76163   0.54232   0.93261   0.00000  Uiso   1.00
C268   C     0.65467   0.48550   0.83738   0.00000  Uiso   1.00
C269   C     0.63038   0.47724   0.79385   0.00000  Uiso   1.00
C270   C     0.60012   0.47993   0.88676   0.00000  Uiso   1.00
H271   H     0.67531   0.48684   0.81751   0.00000  Uiso   1.00
H272   H     0.63244   0.47257   0.74098   0.00000  Uiso   1.00
H273   H     0.58443   0.46749   0.78378   0.00000  Uiso   1.00
H274   H     0.62271   0.49330  -0.01648   0.00000  Uiso   1.00
H275   H     0.67929   0.47894  -0.05207   0.00000  Uiso   1.00
C276   C     0.81490   0.55028   0.92254   0.00000  Uiso   1.00
C277   C     0.78859   0.54465  -0.03275   0.00000  Uiso   1.00
H278   H     0.73731   0.54574   0.02042   0.00000  Uiso   1.00
H279   H     0.75630   0.52699   0.88258   0.00000  Uiso   1.00
H280   H     0.76772   0.56525   0.92722   0.00000  Uiso   1.00
H281   H     0.72963   0.50786  -0.01740   0.00000  Uiso   1.00
H282   H     0.67423   0.50735   0.00474   0.00000  Uiso   1.00
H283   H     0.80672   0.53079   0.87875   0.00000  Uiso   1.00
H284   H     0.82282   0.57169   0.90608   0.00000  Uiso   1.00
N285   N     0.83998   0.55309  -0.04012   0.00000  Uiso   1.00
N286   N     0.70706   0.52413   0.93471   0.00000  Uiso   1.00
C287   C     0.60320   0.47441   0.81831   0.00000  Uiso   1.00
C288   C     0.33143   0.88930   0.06231   0.00000  Uiso   1.00
C289   C     0.32748   0.88749   0.12883   0.00000  Uiso   1.00
C290   C     0.35275   0.89838   0.17215   0.00000  Uiso   1.00
C291   C     0.38217   0.91112   0.14955   0.00000  Uiso   1.00
C292   C     0.38676   0.91402   1.08368   0.00000  Uiso   1.00
C293   C     0.36123   0.90325   0.04033   0.00000  Uiso   1.00
C294   C     0.30391   0.87520   0.01456   0.00000  Uiso   1.00
H295   H     0.30482   0.87738   0.14708   0.00000  Uiso   1.00
H296   H     0.34950   0.89667   0.22326   0.00000  Uiso   1.00
H297   H     0.40130   0.91854   0.18354   0.00000  Uiso   1.00
H298   H     0.36443   0.90504   0.98920   0.00000  Uiso   1.00
H299   H     0.28589   0.87933   0.03829   0.00000  Uiso   1.00
H300   H     0.31044   0.88630  -0.02806   0.00000  Uiso   1.00
C301   C     0.15730   0.66126   0.96554   0.00000  Uiso   1.00
C302   C     0.13670   0.63318   0.98165   0.00000  Uiso   1.00
C303   C     0.18765   0.68284   1.00440   0.00000  Uiso   1.00
C304   C     0.22185   0.73558   0.99882   0.00000  Uiso   1.00
C305   C     0.22769   0.76788   1.02242   0.00000  Uiso   1.00
C306   C     0.15023   0.66812   0.90987   0.00000  Uiso   1.00
C307   C     0.12310   0.64736   0.87090   0.00000  Uiso   1.00
C308   C     0.10971   0.61191   0.94157   0.00000  Uiso   1.00
H309   H     0.16576   0.68954   0.89654   0.00000  Uiso   1.00
H310   H     0.11778   0.65294   0.82829   0.00000  Uiso   1.00
H311   H     0.08240   0.60327   0.85452   0.00000  Uiso   1.00
H312   H     0.14220   0.62741   1.02376   0.00000  Uiso   1.00
H313   H     0.20566   0.68128   0.97386   0.00000  Uiso   1.00
C314   C     0.26535   0.82327   0.02028   0.00000  Uiso   1.00
C315   C     0.25748   0.79035   0.99655   0.00000  Uiso   1.00
H316   H     0.24114   0.73467   1.01819   0.00000  Uiso   1.00
H317   H     0.20840   0.76891   1.00369   0.00000  Uiso   1.00
H318   H     0.22932   0.77403   0.07741   0.00000  Uiso   1.00
H319   H     0.22054   0.72960   0.94376   0.00000  Uiso   1.00
H320   H     0.18822   0.67577   1.05054   0.00000  Uiso   1.00
H321   H     0.24594   0.82526   0.00605   0.00000  Uiso   1.00
H322   H     0.26951   0.82997   0.07498   0.00000  Uiso   1.00
N323   N     0.29277   0.84269  -0.01095   0.00000  Uiso   1.00
N324   N     0.19302   0.71391   1.02256   0.00000  Uiso   1.00
C325   C     0.10312   0.61923   0.88600   0.00000  Uiso   1.00
C326   C     0.52916   0.85824   0.95672   0.00000  Uiso   1.00
C327   C     0.50785   0.83138   0.91282   0.00000  Uiso   1.00
C328   C     0.48077   0.82806   0.89076   0.00000  Uiso   1.00
C329   C     0.47466   0.85143   0.91221   0.00000  Uiso   1.00
C330   C     0.49528   0.87820  -0.04270   0.00000  Uiso   1.00
C331   C     0.52261   0.88156  -0.02043   0.00000  Uiso   1.00
C332   C     0.55892   0.86194   0.97729   0.00000  Uiso   1.00
H333   H     0.51225   0.81306   0.89502   0.00000  Uiso   1.00
H334   H     0.46456   0.80739   0.85655   0.00000  Uiso   1.00
H335   H     0.45366   0.84852   0.89381   0.00000  Uiso   1.00
H336   H     0.53896   0.90245   0.01316   0.00000  Uiso   1.00
H337   H     0.57124   0.85970   0.93232   0.00000  Uiso   1.00
H338   H     0.57402   0.88504   1.00843   0.00000  Uiso   1.00
C339   C     0.55545   0.68255   0.05000   0.00000  Uiso   1.00
C340   C     0.53765   0.65093   0.04267   0.00000  Uiso   1.00
C341   C     0.54038   0.70112   0.06014   0.00000  Uiso   1.00
C342   C     0.54358   0.74519   0.03730   0.00000  Uiso   1.00
C343   C     0.55753   0.76858  -0.00531   0.00000  Uiso   1.00
C344   C     0.58749   0.69680   0.05265   0.00000  Uiso   1.00
C345   C     0.60144   0.67957   0.04765   0.00000  Uiso   1.00
C346   C     0.55157   0.63374   0.03984   0.00000  Uiso   1.00
H347   H     0.60161   0.72124   0.05887   0.00000  Uiso   1.00
H348   H     0.62614   0.69067   0.04888   0.00000  Uiso   1.00
H349   H     0.59467   0.63516   0.04021   0.00000  Uiso   1.00
H350   H     0.51295   0.63988   0.04288   0.00000  Uiso   1.00
H351   H     0.54539   0.71374   0.11287   0.00000  Uiso   1.00
C352   C     0.56205   0.81797   0.98425   0.00000  Uiso   1.00
C353   C     0.55007   0.79330   0.02296   0.00000  Uiso   1.00
H354   H     0.51821   0.73419   0.03349   0.00000  Uiso   1.00
H355   H     0.58277   0.77871  -0.00406   0.00000  Uiso   1.00
H356   H     0.54780   0.75747   0.94272   0.00000  Uiso   1.00
H357   H     0.55230   0.75724   0.08964   0.00000  Uiso   1.00
H358   H     0.51511   0.68620   0.05075   0.00000  Uiso   1.00
H359   H     0.58742   0.82970   0.98491   0.00000  Uiso   1.00
H360   H     0.55202   0.80737   0.93241   0.00000  Uiso   1.00
N361   N     0.55285   0.83967   1.01625   0.00000  Uiso   1.00
N362   N     0.55207   0.72211   0.01567   0.00000  Uiso   1.00
C363   C     0.58358   0.64816   0.04242   0.00000  Uiso   1.00
C364   C     0.45370   0.31960   0.93422   0.00000  Uiso   1.00
C365   C     0.42250   0.30654   0.94600   0.00000  Uiso   1.00
C366   C     0.40983   0.32493   0.96559   0.00000  Uiso   1.00
C367   C     0.42798   0.35640   0.97203   0.00000  Uiso   1.00
C368   C     0.45922   0.36975   0.96136   0.00000  Uiso   1.00
C369   C     0.47204   0.35136   0.94313   0.00000  Uiso   1.00
C370   C     0.46675   0.29974   0.90672   0.00000  Uiso   1.00
H371   H     0.40791   0.28211   0.93920   0.00000  Uiso   1.00
H372   H     0.38580   0.31470   0.97481   0.00000  Uiso   1.00
H373   H     0.41772   0.37031   0.98549   0.00000  Uiso   1.00
H374   H     0.49596   0.36167   0.93257   0.00000  Uiso   1.00
H375   H     0.45653   0.28760   0.85532   0.00000  Uiso   1.00
H376   H     0.49201   0.31384   0.90481   0.00000  Uiso   1.00
C377   C     0.49357   0.14904   0.00690   0.00000  Uiso   1.00
C378   C     0.49974   0.12533   0.99681   0.00000  Uiso   1.00
C379   C     0.46427   0.14356  -0.02193   0.00000  Uiso   1.00
C380   C     0.45947   0.18575  -0.03481   0.00000  Uiso   1.00
C381   C     0.47090   0.21056   0.92662   0.00000  Uiso   1.00
C382   C     0.51444   0.17760   0.04666   0.00000  Uiso   1.00
C383   C     0.54084   0.18230   0.07633   0.00000  Uiso   1.00
C384   C     0.52598   0.12986   1.02775   0.00000  Uiso   1.00
H385   H     0.51030   0.19626   0.05514   0.00000  Uiso   1.00
H386   H     0.55684   0.20438   0.10672   0.00000  Uiso   1.00
H387   H     0.56671   0.16237   0.09233   0.00000  Uiso   1.00
H388   H     0.48352   0.10305   0.96735   0.00000  Uiso   1.00
H389   H     0.44958   0.14464   0.01914   0.00000  Uiso   1.00
C390   C     0.47096   0.25758   0.91805   0.00000  Uiso   1.00
C391   C     0.45984   0.23248   0.95562   0.00000  Uiso   1.00
H392   H     0.43401   0.17246   0.96130   0.00000  Uiso   1.00
H393   H     0.49635   0.22331   0.92945   0.00000  Uiso   1.00
H394   H     0.46218   0.19993   0.87394   0.00000  Uiso   1.00
H395   H     0.46770   0.19658   0.01811   0.00000  Uiso   1.00
H396   H     0.45117   0.12032  -0.05410   0.00000  Uiso   1.00
H397   H     0.49640   0.27076   0.92142   0.00000  Uiso   1.00
H398   H     0.46231   0.24693   0.86528   0.00000  Uiso   1.00
N399   N     0.45955   0.27777   0.94726   0.00000  Uiso   1.00
N400   N     0.47112   0.16556   0.93770   0.00000  Uiso   1.00
C401   C     0.54643   0.15847   0.06771   0.00000  Uiso   1.00
loop_
_geom_bond_atom_site_label_1
_geom_bond_atom_site_label_2
_geom_bond_distance
_geom_bond_site_symmetry_2
_ccdc_geom_bond_type
Y0     O10     2.252   .     S
Y0     O13     2.261   .     S
Y0     O14     2.265   .     S
Y0     O12     2.256   1_554 S
Y0     O15     2.259   1_554 S
Y0     O17     2.281   1_554 S
Y1     O8      2.257   .     S
Y1     O16     2.249   .     S
Y1     O19     2.259   .     S
Y1     O9      2.261   1_556 S
Y1     O11     2.282   1_556 S
Y1     O18     2.261   1_556 S
C2     O9      1.256   .     A
C2     C346    1.466   .     S
C2     O8      1.260   1_554 A
C3     O10     1.265   .     A
C3     O11     1.277   .     A
C3     C64     1.479   .     S
C4     O12     1.260   .     A
C4     C270    1.473   .     S
C4     O13     1.259   1_556 A
C5     O15     1.258   .     A
C5     C368    1.466   .     S
C5     O14     1.260   1_556 A
C6     O16     1.264   .     A
C6     O17     1.276   .     A
C6     C80     1.478   .     S
C7     O18     1.260   .     A
C7     C178    1.475   .     S
C7     O19     1.260   1_554 A
O8     C2      1.260   1_556 A
O9     Y1      2.261   1_554 S
O11    Y1      2.282   1_554 S
O12    Y0      2.256   1_556 S
O13    C4      1.259   1_554 A
O14    C5      1.260   1_554 A
O15    Y0      2.259   1_556 S
O17    Y0      2.281   1_556 S
O18    Y1      2.261   1_554 S
O19    C7      1.260   1_556 A
Y20    O30     2.258   .     S
Y20    O33     2.271   .     S
Y20    O34     2.268   .     S
Y20    O32     2.256   1_554 S
Y20    O35     2.252   1_554 S
Y20    O37     2.258   1_554 S
Y21    O28     2.266   .     S
Y21    O36     2.256   .     S
Y21    O39     2.262   .     S
Y21    O29     2.247   1_556 S
Y21    O31     2.257   1_556 S
Y21    O38     2.247   1_556 S
C22    O28     1.263   .     A
C22    C254    1.473   .     S
C22    O29     1.260   1_556 A
C23    O30     1.273   .     A
C23    C118    1.481   .     S
C23    O31     1.272   1_455 A
C24    O32     1.258   .     A
C24    C308    1.476   .     S
C24    O33     1.262   1_556 A
C25    O34     1.261   .     A
C25    C194    1.474   .     S
C25    O35     1.259   1_554 A
C26    O37     1.273   .     A
C26    O36     1.273   1_455 A
C26    C102    1.481   1_455 S
C27    O38     1.260   .     A
C27    C216    1.473   .     S
C27    O39     1.263   1_554 A
O29    Y21     2.247   1_554 S
O29    C22     1.260   1_554 A
O31    Y21     2.257   1_554 S
O31    C23     1.272   1_655 A
O32    Y20     2.256   1_556 S
O33    C24     1.262   1_554 A
O35    Y20     2.252   1_556 S
O35    C25     1.259   1_556 A
O36    C26     1.273   1_655 A
O37    Y20     2.258   1_556 S
O38    Y21     2.247   1_554 S
O39    C27     1.263   1_556 A
Y40    O50     2.258   .     S
Y40    O53     2.245   .     S
Y40    O54     2.253   .     S
Y40    O52     2.267   1_554 S
Y40    O55     2.259   1_554 S
Y40    O57     2.255   1_554 S
Y41    O48     2.260   .     S
Y41    O56     2.260   .     S
Y41    O59     2.240   .     S
Y41    O49     2.263   1_556 S
Y41    O51     2.258   1_556 S
Y41    O58     2.270   1_556 S
C42    O48     1.263   .     A
C42    C292    1.479   .     S
C42    O49     1.262   1_556 A
C43    O50     1.273   .     A
C43    O51     1.272   1_545 A
C43    C140    1.463   1_545 S
C44    O52     1.265   .     A
C44    C384    1.471   .     S
C44    O53     1.259   1_556 A
C45    O54     1.261   .     A
C45    C232    1.470   .     S
C45    O55     1.262   1_554 A
C46    O57     1.269   .     A
C46    C156    1.463   .     S
C46    O56     1.271   1_545 A
C47    O58     1.264   .     A
C47    C330    1.473   .     S
C47    O59     1.260   1_554 A
O49    Y41     2.263   1_554 S
O49    C42     1.262   1_554 A
O51    Y41     2.258   1_554 S
O51    C43     1.272   1_565 A
O52    Y40     2.267   1_556 S
O53    C44     1.259   1_554 A
O55    Y40     2.259   1_556 S
O55    C45     1.262   1_556 A
O56    C46     1.271   1_565 A
O57    Y40     2.255   1_556 S
O58    Y41     2.270   1_554 S
O59    C47     1.260   1_556 A
C60    C61     1.402   .     A
C60    C65     1.402   .     A
C60    C66     1.499   .     S
C61    C62     1.396   .     A
C61    H67     1.083   .     S
C62    C63     1.397   .     A
C62    H68     1.083   .     S
C63    C64     1.403   .     A
C63    H69     1.074   .     S
C64    C65     1.406   .     A
C65    H70     1.084   .     S
C66    H71     1.113   .     S
C66    H72     1.113   .     S
C66    N95     1.462   .     S
C73    C74     1.402   .     A
C73    C75     1.500   .     S
C73    C78     1.402   .     A
C74    C80     1.406   .     A
C74    H84     1.084   .     S
C75    H85     1.112   .     S
C75    H92     1.113   .     S
C75    N96     1.460   .     S
C76    C77     1.520   .     S
C76    H88     1.114   .     S
C76    H91     1.113   .     S
C76    N96     1.460   .     S
C77    C87     1.521   .     S
C77    H89     1.111   .     S
C77    H90     1.113   .     S
C78    C79     1.397   .     A
C78    H81     1.083   .     S
C79    H82     1.083   .     S
C79    C97     1.398   .     A
C80    C97     1.403   .     A
H83    C97     1.075   .     S
C86    C87     1.518   .     S
C86    H93     1.112   .     S
C86    H94     1.113   .     S
C86    N95     1.458   .     S
C98    C99     1.403   .     A
C98    C103    1.405   .     A
C98    C104    1.508   .     S
C99    C100    1.399   .     A
C99    H105    1.083   .     S
C100   C101    1.399   .     A
C100   H106    1.083   .     S
C101   C102    1.402   .     A
C101   H107    1.080   .     S
C102   C103    1.409   .     A
C102   C26     1.481   1_655 S
C103   H108    1.083   .     S
C104   H109    1.113   .     S
C104   H110    1.113   .     S
C104   N133    1.467   .     S
C111   C112    1.406   .     A
C111   C113    1.509   .     S
C111   C116    1.404   .     A
C112   C118    1.412   .     A
C112   H122    1.084   .     S
C113   H123    1.113   .     S
C113   H130    1.113   .     S
C113   N134    1.467   .     S
C114   H126    1.112   .     S
C114   H129    1.113   .     S
C114   N134    1.468   .     S
C114   C115    1.531   1_455 S
C115   H127    1.112   .     S
C115   H128    1.111   .     S
C115   C114    1.531   1_655 S
C115   C125    1.534   1_655 S
C116   C117    1.397   .     A
C116   H119    1.083   .     S
C117   H120    1.082   .     S
C117   C135    1.396   .     A
C118   C135    1.402   .     A
H121   C135    1.080   .     S
C124   H131    1.113   .     S
C124   H132    1.112   .     S
C124   N133    1.466   .     S
C124   C125    1.530   1_655 S
C125   C115    1.534   1_455 S
C125   C124    1.530   1_455 S
C136   C137    1.405   .     A
C136   C141    1.406   .     A
C136   C142    1.502   .     S
C137   C138    1.396   .     A
C137   H143    1.083   .     S
C138   C139    1.395   .     A
C138   H144    1.082   .     S
C139   C140    1.402   .     A
C139   H145    1.084   1_565 S
C140   C141    1.401   .     A
C140   C43     1.463   1_565 S
C141   H146    1.083   .     S
C142   H147    1.113   .     S
C142   H148    1.113   .     S
C142   N171    1.464   .     S
H145   C139    1.084   1_545 S
C149   C150    1.405   .     A
C149   C151    1.500   .     S
C149   C154    1.404   .     A
C150   C156    1.401   .     A
C150   H160    1.084   .     S
C151   H161    1.113   .     S
C151   H168    1.113   .     S
C151   N172    1.465   .     S
C152   H164    1.113   .     S
C152   H167    1.112   .     S
C152   N172    1.461   .     S
C152   C153    1.529   1_545 S
C153   H165    1.113   .     S
C153   H166    1.112   .     S
C153   C152    1.529   1_565 S
C153   C163    1.525   1_565 S
C154   C155    1.395   .     A
C154   H157    1.083   .     S
C155   H158    1.082   .     S
C155   C173    1.395   .     A
C156   C173    1.404   .     A
H159   C173    1.084   1_565 S
C162   H169    1.113   .     S
C162   H170    1.112   .     S
C162   N171    1.460   .     S
C162   C163    1.524   1_565 S
C163   C153    1.525   1_545 S
C163   C162    1.524   1_545 S
C173   H159    1.084   1_545 S
C174   C175    1.405   .     A
C174   C179    1.405   .     A
C174   C180    1.505   .     S
C175   C176    1.396   .     A
C175   H181    1.083   .     S
C176   C177    1.397   .     A
C176   H182    1.082   .     S
C177   C178    1.404   .     A
C177   H183    1.082   .     S
C178   C179    1.405   .     A
C179   H184    1.084   1_554 S
C180   H185    1.112   .     S
C180   N209    1.465   .     S
C180   H186    1.113   1_554 S
H184   C179    1.084   1_556 S
H186   C180    1.113   1_556 S
C187   C188    1.408   .     A
C187   C189    1.503   .     S
C187   C192    1.404   1_554 A
C188   C194    1.407   .     A
C188   H198    1.084   .     S
C189   H199    1.113   .     S
C189   H206    1.112   .     S
C189   N210    1.466   .     S
C190   C191    1.526   .     S
C190   H202    1.113   .     S
C190   H205    1.113   .     S
C190   N210    1.463   .     S
C191   C201    1.527   .     S
C191   H204    1.112   .     S
C191   H203    1.112   1_554 S
C192   C193    1.395   .     A
C192   H195    1.083   .     S
C192   C187    1.404   1_556 A
C193   H196    1.082   .     S
C193   C211    1.395   .     A
C194   C211    1.405   1_554 A
H197   C211    1.083   .     S
C200   C201    1.522   .     S
C200   H208    1.114   .     S
C200   N209    1.464   .     S
C200   H207    1.111   1_554 S
H203   C191    1.112   1_556 S
H207   C200    1.111   1_556 S
C211   C194    1.405   1_556 A
C212   C217    1.405   .     A
C212   C218    1.501   .     S
C212   C213    1.404   1_556 A
C213   C214    1.395   .     A
C213   H219    1.083   .     S
C213   C212    1.404   1_554 A
C214   C215    1.395   .     A
C214   H220    1.082   .     S
C215   C216    1.405   .     A
C215   H221    1.083   .     S
C216   C217    1.405   1_554 A
C217   H222    1.084   .     S
C217   C216    1.405   1_556 A
C218   H223    1.113   .     S
C218   H224    1.112   .     S
C218   N247    1.464   1_556 S
C225   C226    1.404   .     A
C225   C227    1.502   .     S
C225   C230    1.404   .     A
C226   C232    1.403   .     A
C226   H236    1.084   .     S
C227   H237    1.112   .     S
C227   H244    1.114   .     S
C227   N248    1.463   .     S
C228   C229    1.524   .     S
C228   H240    1.114   .     S
C228   H243    1.112   .     S
C228   N248    1.462   .     S
C229   C239    1.524   .     S
C229   H241    1.111   1_554 S
C229   H242    1.112   1_554 S
C230   C231    1.398   .     A
C230   H233    1.083   .     S
C231   C249    1.397   .     A
C231   H234    1.082   1_554 S
C232   C249    1.402   .     A
H234   C231    1.082   1_556 S
H235   C249    1.083   1_556 S
C238   H245    1.112   .     S
C238   H246    1.113   .     S
C238   C239    1.522   1_556 S
C238   N247    1.460   1_556 S
C239   C238    1.522   1_554 S
H241   C229    1.111   1_556 S
H242   C229    1.112   1_556 S
N247   C218    1.464   1_554 S
N247   C238    1.460   1_554 S
C249   H235    1.083   1_554 S
C250   C251    1.404   .     A
C250   C255    1.407   1_554 A
C250   C256    1.504   1_554 S
C251   C252    1.396   .     A
C251   H257    1.083   .     S
C252   C253    1.395   .     A
C252   H258    1.083   .     S
C253   H259    1.083   .     S
C253   C254    1.404   1_554 A
C254   C255    1.406   .     A
C254   C253    1.404   1_556 A
C255   H260    1.083   .     S
C255   C250    1.407   1_556 A
C256   H261    1.113   .     S
C256   H262    1.113   .     S
C256   C250    1.504   1_556 S
C256   N285    1.465   1_556 S
C263   C264    1.405   .     A
C263   C268    1.405   .     A
C263   C265    1.505   1_556 S
C264   C270    1.406   .     A
C264   H274    1.084   1_556 S
C265   H275    1.112   .     S
C265   H282    1.113   .     S
C265   C263    1.505   1_554 S
C265   N286    1.465   1_554 S
C266   H278    1.112   .     S
C266   H281    1.114   .     S
C266   C267    1.526   1_554 S
C266   N286    1.466   1_554 S
C267   H279    1.112   .     S
C267   H280    1.111   .     S
C267   C266    1.526   1_556 S
C267   C277    1.528   1_556 S
C268   C269    1.396   .     A
C268   H271    1.083   .     S
C269   H272    1.082   .     S
C269   C287    1.395   .     A
C270   C287    1.403   .     A
H273   C287    1.083   .     S
H274   C264    1.084   1_554 S
C276   H283    1.113   .     S
C276   H284    1.112   .     S
C276   C277    1.525   1_556 S
C276   N285    1.462   1_556 S
C277   C267    1.528   1_554 S
C277   C276    1.525   1_554 S
N285   C256    1.465   1_554 S
N285   C276    1.462   1_554 S
N286   C265    1.465   1_556 S
N286   C266    1.466   1_556 S
C288   C289    1.403   .     A
C288   C293    1.408   .     A
C288   C294    1.508   .     S
C289   C290    1.396   .     A
C289   H295    1.083   .     S
C290   C291    1.396   .     A
C290   H296    1.083   .     S
C291   H297    1.083   .     S
C291   C292    1.405   1_554 A
C292   C291    1.405   1_556 A
C292   C293    1.409   1_556 A
C293   C292    1.409   1_554 A
C293   H298    1.084   1_554 S
C294   H299    1.114   .     S
C294   H300    1.111   .     S
C294   N323    1.469   .     S
H298   C293    1.084   1_556 S
C301   C302    1.408   .     A
C301   C303    1.507   .     S
C301   C306    1.404   .     A
C302   C308    1.406   .     A
C302   H312    1.083   .     S
C303   H313    1.114   .     S
C303   H320    1.111   .     S
C303   N324    1.471   .     S
C304   C305    1.529   .     S
C304   H316    1.113   .     S
C304   H319    1.113   .     S
C304   N324    1.467   .     S
C305   C315    1.530   .     S
C305   H317    1.112   .     S
C305   H318    1.112   1_556 S
C306   C307    1.395   .     A
C306   H309    1.082   .     S
C307   H310    1.083   .     S
C307   C325    1.396   .     A
C308   C325    1.405   .     A
H311   C325    1.083   .     S
C314   H321    1.112   .     S
C314   H322    1.111   .     S
C314   N323    1.465   .     S
C314   C315    1.526   1_554 S
C315   C314    1.526   1_556 S
H318   C305    1.112   1_554 S
C326   C327    1.404   .     A
C326   C332    1.505   .     S
C326   C331    1.409   1_556 A
C327   C328    1.394   .     A
C327   H333    1.082   .     S
C328   C329    1.393   .     A
C328   H334    1.082   .     S
C329   H335    1.083   .     S
C329   C330    1.403   1_556 A
C330   C331    1.407   .     A
C330   C329    1.403   1_554 A
C331   H336    1.083   .     S
C331   C326    1.409   1_554 A
C332   H337    1.114   .     S
C332   H338    1.110   .     S
C332   N361    1.465   .     S
C339   C340    1.401   .     A
C339   C341    1.501   .     S
C339   C344    1.405   .     A
C340   C346    1.400   .     A
C340   H350    1.084   .     S
C341   H351    1.113   .     S
C341   H358    1.113   .     S
C341   N362    1.465   .     S
C342   C343    1.523   .     S
C342   H354    1.114   .     S
C342   H357    1.114   .     S
C342   N362    1.462   .     S
C343   C353    1.524   .     S
C343   H355    1.112   .     S
C343   H356    1.112   1_554 S
C344   C345    1.398   .     A
C344   H347    1.083   .     S
C345   H348    1.083   .     S
C345   C363    1.398   .     A
C346   C363    1.403   .     A
H349   C363    1.082   .     S
C352   H359    1.112   .     S
C352   H360    1.112   .     S
C352   N361    1.463   .     S
C352   C353    1.517   1_556 S
C353   C352    1.517   1_554 S
H356   C343    1.112   1_556 S
C364   C365    1.405   .     A
C364   C369    1.405   .     A
C364   C370    1.506   .     S
C365   C366    1.398   .     A
C365   H371    1.083   .     S
C366   C367    1.398   .     A
C366   H372    1.083   .     S
C367   C368    1.401   .     A
C367   H373    1.083   .     S
C368   C369    1.402   .     A
C369   H374    1.084   .     S
C370   H375    1.113   .     S
C370   H376    1.113   .     S
C370   N399    1.465   .     S
C377   C379    1.506   .     S
C377   C382    1.406   .     A
C377   C378    1.407   1_554 A
C378   C384    1.404   .     A
C378   H388    1.084   .     S
C378   C377    1.407   1_556 A
C379   H389    1.114   .     S
C379   H396    1.111   .     S
C379   N400    1.467   1_554 S
C380   H395    1.113   .     S
C380   C381    1.523   1_554 S
C380   H392    1.113   1_554 S
C380   N400    1.465   1_554 S
C381   C391    1.527   .     S
C381   H393    1.112   .     S
C381   H394    1.112   .     S
C381   C380    1.523   1_556 S
C382   C383    1.395   .     A
C382   H385    1.082   .     S
C383   H386    1.082   .     S
C383   C401    1.395   .     A
C384   C401    1.404   1_556 A
H387   C401    1.084   .     S
C390   C391    1.522   .     S
C390   H397    1.112   .     S
C390   H398    1.113   .     S
C390   N399    1.463   .     S
H392   C380    1.113   1_556 S
N400   C379    1.467   1_556 S
N400   C380    1.465   1_556 S
C401   C384    1.404   1_554 A
