data_kag+N394+E59
_audit_creation_date              2025-01-21
_audit_creation_method            'Materials Studio'
_symmetry_space_group_name_H-M    'P1'
_symmetry_Int_Tables_number       1
_symmetry_cell_setting            triclinic
loop_
_symmetry_equiv_pos_as_xyz
  x,y,z
_cell_length_a                    41.3580
_cell_length_b                    42.4515
_cell_length_c                    19.6286
_cell_angle_alpha                 86.9930
_cell_angle_beta                  90.7883
_cell_angle_gamma                 112.2881
loop_
_atom_site_label
_atom_site_type_symbol
_atom_site_fract_x
_atom_site_fract_y
_atom_site_fract_z
_atom_site_U_iso_or_equiv
_atom_site_adp_type
_atom_site_occupancy
Pr0    Pr    0.50853   0.55041   0.00348   0.00000  Uiso   1.00
Pr1    Pr    0.52297   0.48422   0.96950   0.00000  Uiso   1.00
O2     O     0.46507   0.45970   1.00704   0.00000  Uiso   1.00
O3     O     0.45555   0.50778   0.03574   0.00000  Uiso   1.00
O4     O     0.49995   0.59899   0.97320   0.00000  Uiso   1.00
O5     O     0.50554   0.58759   0.07992   0.00000  Uiso   1.00
O6     O     0.51948   0.50917   0.06536   0.00000  Uiso   1.00
O7     O     0.55786   0.55924   0.07006   0.00000  Uiso   1.00
C8     C     0.47845   0.50256   0.88548   0.00000  Uiso   1.00
C9     C     0.44579   0.47487   0.03159   0.00000  Uiso   1.00
C10    C     0.50129   0.60825   1.03434   0.00000  Uiso   1.00
C11    C     0.53595   0.42962  -0.06267   0.00000  Uiso   1.00
C12    C     0.58621   0.55894   0.94523   0.00000  Uiso   1.00
C13    C     0.55090   0.53005   0.09010   0.00000  Uiso   1.00
O14    O     0.56643   0.57417  -0.03327   0.00000  Uiso   1.00
O15    O     0.57669   0.52610   0.94228   0.00000  Uiso   1.00
O16    O     0.53539   0.43766  -0.00097   0.00000  Uiso   1.00
O17    O     0.52871   0.44879   0.89241   0.00000  Uiso   1.00
O18    O     0.51025   0.52427   0.90767   0.00000  Uiso   1.00
O19    O     0.47205   0.47359   0.90712   0.00000  Uiso   1.00
Pr20   Pr    0.99480   0.45550   1.03324   0.00000  Uiso   1.00
Pr21   Pr    0.00151   0.53972  -0.02709   0.00000  Uiso   1.00
O22    O     0.94510   0.51488  -0.06258   0.00000  Uiso   1.00
O23    O     0.96990   0.47844   0.94610   0.00000  Uiso   1.00
O24    O     0.94504   0.41200   0.00049   0.00000  Uiso   1.00
O25    O     0.99301   0.40750   0.98130   0.00000  Uiso   1.00
O26    O     0.00338   0.48913   0.93255   0.00000  Uiso   1.00
O27    O     1.04402   0.47230   0.96245   0.00000  Uiso   1.00
C28    C    -0.03256   0.50736   0.09805   0.00000  Uiso   1.00
C29    C     0.94117   0.48386   0.94624   0.00000  Uiso   1.00
C30    C     0.96018   0.39417  -0.02335   0.00000  Uiso   1.00
C31    C     0.03623   0.60090   1.02903   0.00000  Uiso   1.00
C32    C     0.06784   0.52668   0.05091   0.00000  Uiso   1.00
C33    C     0.03638   0.48991   0.91998   0.00000  Uiso   1.00
O34    O     0.05052   0.49420   1.05899   0.00000  Uiso   1.00
O35    O     0.05561   0.54815   0.02264   0.00000  Uiso   1.00
O36    O     0.05043   0.57959   1.01880   0.00000  Uiso   1.00
O37    O     0.00441   0.59073   0.01159   0.00000  Uiso   1.00
O38    O     0.99687   0.50541   0.07459   0.00000  Uiso   1.00
O39    O    -0.03905   0.52809   0.06333   0.00000  Uiso   1.00
Pr40   Pr    0.53318   0.03222  -0.01225   0.00000  Uiso   1.00
Pr41   Pr    0.45258   0.96523   1.00263   0.00000  Uiso   1.00
O42    O     0.46193   0.01026   0.07667   0.00000  Uiso   1.00
O43    O     0.51714   0.04997   0.08341   0.00000  Uiso   1.00
O44    O     0.56922   0.08685   0.95978   0.00000  Uiso   1.00
O45    O     0.59193   0.05205   0.00120   0.00000  Uiso   1.00
O46    O     0.51026   0.97506   0.02642   0.00000  Uiso   1.00
O47    O     0.53794   0.01184   0.09800   0.00000  Uiso   1.00
C48    C     0.46700   1.01827   0.90146   0.00000  Uiso   1.00
C49    C     0.48512   0.03667   0.10332   0.00000  Uiso   1.00
C50    C     0.59688   0.08204   0.97733   0.00000  Uiso   1.00
C51    C     0.43185   0.89728   0.03319   0.00000  Uiso   1.00
C52    C     0.52112   0.97470   0.90172   0.00000  Uiso   1.00
C53    C     0.52167  -0.01826   0.09240   0.00000  Uiso   1.00
O54    O     0.53811   1.00668   0.89322   0.00000  Uiso   1.00
O55    O     0.50523   0.96259   0.95987   0.00000  Uiso   1.00
O56    O     0.43935   0.91920   0.07826   0.00000  Uiso   1.00
O57    O     0.43437   0.90984   0.97265   0.00000  Uiso   1.00
O58    O     0.47572   0.02261   0.96817   0.00000  Uiso   1.00
O59    O     0.45137   0.98859   0.89259   0.00000  Uiso   1.00
C60    C     0.47751   0.49986   0.65597   0.00000  Uiso   1.00
C61    C     0.47555   0.48590   0.53680   0.00000  Uiso   1.00
H62    H     0.60594   0.52999   0.38575   0.00000  Uiso   1.00
C63    C     0.52757   0.52893   0.58107   0.00000  Uiso   1.00
C64    C     0.51176   0.52378   0.64535   0.00000  Uiso   1.00
N65    N     0.55869   0.51254   0.20581   0.00000  Uiso   1.00
N66    N     0.46877   0.51900   0.76973   0.00000  Uiso   1.00
O67    O     0.60708   0.54824   0.25566   0.00000  Uiso   1.00
O68    O     0.43881   0.46536   0.73967   0.00000  Uiso   1.00
H69    H     0.60049   0.53826   0.13502   0.00000  Uiso   1.00
H70    H     0.57459   0.49460   0.11902   0.00000  Uiso   1.00
H71    H     0.57796   0.52148   0.49744   0.00000  Uiso   1.00
H72    H     0.50789   0.51792   0.28878   0.00000  Uiso   1.00
H73    H     0.48009   0.51038   0.40035   0.00000  Uiso   1.00
H74    H     0.53325   0.49445   0.21216   0.00000  Uiso   1.00
H75    H     0.43333   0.46210   0.60771   0.00000  Uiso   1.00
H76    H     0.42796   0.49322   0.84165   0.00000  Uiso   1.00
H77    H     0.45342   0.53690   0.85729   0.00000  Uiso   1.00
H78    H     0.46127   0.47052   0.49578   0.00000  Uiso   1.00
H79    H     0.52674   0.53811   0.68687   0.00000  Uiso   1.00
H80    H     0.55380   0.54789   0.57439   0.00000  Uiso   1.00
H81    H     0.48647   0.54352   0.75595   0.00000  Uiso   1.00
C82    C     0.57841   0.52560   0.38845   0.00000  Uiso   1.00
C83    C     0.57643   0.52915   0.26122   0.00000  Uiso   1.00
C84    C     0.57350   0.51858   0.13685   0.00000  Uiso   1.00
C85    C     0.52671   0.51509   0.45793   0.00000  Uiso   1.00
C86    C     0.55901   0.52398   0.32859   0.00000  Uiso   1.00
C87    C     0.56241   0.52095   0.45238   0.00000  Uiso   1.00
C88    C     0.52336   0.51829   0.33391   0.00000  Uiso   1.00
C89    C     0.50742   0.51399   0.39790   0.00000  Uiso   1.00
C90    C     0.45967   0.48086   0.60102   0.00000  Uiso   1.00
C91    C     0.46056   0.49361   0.72423   0.00000  Uiso   1.00
C92    C     0.45486   0.51306   0.83941   0.00000  Uiso   1.00
C93    C     0.50968   0.51002   0.52603   0.00000  Uiso   1.00
C94    C    -0.02705   0.50284   0.34269   0.00000  Uiso   1.00
C95    C     0.98499   0.52251   0.45807   0.00000  Uiso   1.00
H96    H     0.08492   0.49195   0.62631   0.00000  Uiso   1.00
C97    C     0.00362   0.47827   0.42275   0.00000  Uiso   1.00
C98    C    -0.01033   0.47996   0.35800   0.00000  Uiso   1.00
N99    N     0.04339   0.50635   0.79908   0.00000  Uiso   1.00
N100   N     0.96542   0.49173   0.21888   0.00000  Uiso   1.00
O101   O     0.07488   0.47891   0.75606   0.00000  Uiso   1.00
O102   O     0.93222   0.51420   0.27250   0.00000  Uiso   1.00
H103   H     0.08487   0.50571   0.86516   0.00000  Uiso   1.00
H104   H     0.06885   0.53870   0.87723   0.00000  Uiso   1.00
H105   H     0.06329   0.49524   0.51080   0.00000  Uiso   1.00
H106   H     0.98817   0.49095   0.70883   0.00000  Uiso   1.00
H107   H     0.96694   0.49464   0.59333   0.00000  Uiso   1.00
H108   H     0.02464   0.51707   0.79122   0.00000  Uiso   1.00
H109   H     0.95814   0.54197   0.38341   0.00000  Uiso   1.00
H110   H     0.92147   0.49207   0.16001   0.00000  Uiso   1.00
H111   H     0.93676   0.45892   0.14396   0.00000  Uiso   1.00
H112   H     0.98329   0.53932   0.49626   0.00000  Uiso   1.00
H113   H    -0.00898   0.46239   0.32123   0.00000  Uiso   1.00
H114   H     0.01547   0.45982   0.43394   0.00000  Uiso   1.00
H115   H     0.98762   0.48563   0.21973   0.00000  Uiso   1.00
C116   C     0.05908   0.49244   0.61984   0.00000  Uiso   1.00
C117   C     0.05318   0.49171   0.74646   0.00000  Uiso   1.00
C118   C     0.06079   0.51148   0.86532   0.00000  Uiso   1.00
C119   C     0.01381   0.49605   0.54337   0.00000  Uiso   1.00
C120   C     0.03874   0.49211   0.67690   0.00000  Uiso   1.00
C121   C     0.04676   0.49437   0.55375   0.00000  Uiso   1.00
C122   C     1.00521   0.49257   0.66635   0.00000  Uiso   1.00
C123   C     0.99295   0.49460   0.60022   0.00000  Uiso   1.00
C124   C     0.97093   0.52418   0.39350   0.00000  Uiso   1.00
C125   C     0.95565   0.50334   0.27603   0.00000  Uiso   1.00
C126   C     0.94534   0.48618   0.15569   0.00000  Uiso   1.00
C127   C     0.00098   0.49921   0.47357   0.00000  Uiso   1.00
C128   C     0.47688   1.00930   0.67037   0.00000  Uiso   1.00
C129   C     0.46992   0.97381   0.57412   0.00000  Uiso   1.00
H130   H     0.57683   0.01158   0.36482   0.00000  Uiso   1.00
C131   C     0.51382   0.02997   0.56905   0.00000  Uiso   1.00
C132   C     0.50435   0.03506   0.63483   0.00000  Uiso   1.00
N133   N     0.50992  -0.03337   0.21330   0.00000  Uiso   1.00
N134   N     0.48772   0.03732   0.78450   0.00000  Uiso   1.00
O135   O     0.56347  -0.02115   0.25723   0.00000  Uiso   1.00
O136   O     0.43349   1.00042   0.75200   0.00000  Uiso   1.00
H137   H     0.54306  -0.04880   0.15159   0.00000  Uiso   1.00
H138   H     0.49750   0.93074   0.13658   0.00000  Uiso   1.00
H139   H     0.56213   0.02095   0.47968   0.00000  Uiso   1.00
H140   H     0.46725   0.95695   0.32383   0.00000  Uiso   1.00
H141   H     0.45259   0.96878   0.43673   0.00000  Uiso   1.00
H142   H     0.48516   0.96747   0.21759   0.00000  Uiso   1.00
H143   H     0.43896   0.95762   0.66555   0.00000  Uiso   1.00
H144   H     0.45099   1.05153   0.83589   0.00000  Uiso   1.00
H145   H     0.49503   0.06999   0.86608   0.00000  Uiso   1.00
H146   H     0.45657   0.94951   0.55165   0.00000  Uiso   1.00
H147   H     0.51763   0.05953   0.65669   0.00000  Uiso   1.00
H148   H     0.53453   0.05073   0.54248   0.00000  Uiso   1.00
H149   H     0.51469   0.04560   0.77673   0.00000  Uiso   1.00
C150   C     0.54956   0.00208   0.37972   0.00000  Uiso   1.00
C151   C     0.53342  -0.02370   0.26602   0.00000  Uiso   1.00
C152   C     0.51818  -0.04455   0.14858   0.00000  Uiso   1.00
C153   C     0.50614  -0.00451   0.46759   0.00000  Uiso   1.00
C154   C     0.52332  -0.01608   0.33411   0.00000  Uiso   1.00
C155   C     0.54112   0.00772   0.44554   0.00000  Uiso   1.00
C156   C     0.48828   0.97185   0.35613   0.00000  Uiso   1.00
C157   C     0.47983   0.97792   0.42170   0.00000  Uiso   1.00
C158   C     0.45992   0.97829   0.63940   0.00000  Uiso   1.00
C159   C     0.46435   1.01503   0.73714   0.00000  Uiso   1.00
C160   C     0.47498   1.04636   0.84695   0.00000  Uiso   1.00
C161   C     0.49690   1.00031   0.53845   0.00000  Uiso   1.00
C162   C     0.18477   0.52765   1.00728   0.00000  Uiso   1.00
C163   C     0.24208   0.53265   0.96655   0.00000  Uiso   1.00
H164   H     0.32853   0.49736   0.16362   0.00000  Uiso   1.00
C165   C     0.21545   0.49488   0.06413   0.00000  Uiso   1.00
C166   C     0.18643   0.50402   0.05880   0.00000  Uiso   1.00
N167   N     0.38425   0.46692   1.03109   0.00000  Uiso   1.00
N168   N     0.12437   0.52231   0.04540   0.00000  Uiso   1.00
O169   O     0.38765   0.49800   0.12516   0.00000  Uiso   1.00
O170   O     0.15738   0.56452   0.96868   0.00000  Uiso   1.00
H171   H     0.40953   0.45048   0.11256   0.00000  Uiso   1.00
H172   H     0.40229   0.42661   1.03756   0.00000  Uiso   1.00
H173   H     0.27527   0.50762   0.14104   0.00000  Uiso   1.00
H174   H     0.34102   0.48938   0.94777   0.00000  Uiso   1.00
H175   H     0.28683   0.49856   0.92572   0.00000  Uiso   1.00
H176   H     0.37392   0.46065   0.98263   0.00000  Uiso   1.00
H177   H     0.21214   0.55954   0.92000   0.00000  Uiso   1.00
H178   H     0.11707   0.56822   1.06371   0.00000  Uiso   1.00
H179   H     0.10448   0.53610   0.13208   0.00000  Uiso   1.00
H180   H     0.26383   0.54482   0.93167   0.00000  Uiso   1.00
H181   H     0.16599   0.49329   0.09678   0.00000  Uiso   1.00
H182   H     0.21590   0.47664   0.10448   0.00000  Uiso   1.00
H183   H     0.11631   0.49611   0.05646   0.00000  Uiso   1.00
C184   C     0.31982   0.49759   0.11137   0.00000  Uiso   1.00
C185   C     0.37162   0.48644   0.07367   0.00000  Uiso   1.00
C186   C     0.40973   0.45276   0.05589   0.00000  Uiso   1.00
C187   C     0.27664   0.50346   0.03171   0.00000  Uiso   1.00
C188   C     0.33896   0.49213   0.05777   0.00000  Uiso   1.00
C189   C     0.28910   0.50313   0.09853   0.00000  Uiso   1.00
C190   C     0.32667   0.49267   0.99064   0.00000  Uiso   1.00
C191   C     0.29583   0.49838   0.97774   0.00000  Uiso   1.00
C192   C     0.21267   0.54136   0.96040   0.00000  Uiso   1.00
C193   C     0.15525   0.53954   1.00486   0.00000  Uiso   1.00
C194   C     0.10464   0.54029   1.07576   0.00000  Uiso   1.00
C195   C     0.24404   0.50981   1.01941   0.00000  Uiso   1.00
C196   C     0.68243   0.17964   0.89601   0.00000  Uiso   1.00
C197   C     0.71980   0.23951   0.89868   0.00000  Uiso   1.00
H198   H     0.83359   0.28265   0.09056   0.00000  Uiso   1.00
C199   C     0.73673   0.19834  -0.03982   0.00000  Uiso   1.00
C200   C     0.70651   0.17217  -0.06139   0.00000  Uiso   1.00
N201   N     0.90351   0.35077   0.95154   0.00000  Uiso   1.00
N202   N     0.64018   0.11775  -0.10397   0.00000  Uiso   1.00
O203   O     0.89572   0.32031   0.05422   0.00000  Uiso   1.00
O204   O     0.63710   0.15822   0.81773   0.00000  Uiso   1.00
H205   H     0.94926   0.34100  -0.02571   0.00000  Uiso   1.00
H206   H     0.94894   0.36184   0.89221   0.00000  Uiso   1.00
H207   H     0.77469   0.24277   0.06524   0.00000  Uiso   1.00
H208   H     0.84777   0.31798   0.87808   0.00000  Uiso   1.00
H209   H     0.78862   0.27927   0.85442   0.00000  Uiso   1.00
H210   H     0.89170   0.36278   0.91740   0.00000  Uiso   1.00
H211   H     0.67187   0.22088   0.84310   0.00000  Uiso   1.00
H212   H     0.63412   0.13176   0.99633   0.00000  Uiso   1.00
H213   H     0.65190   0.09904  -0.00931   0.00000  Uiso   1.00
H214   H     0.72508   0.26578   0.88243   0.00000  Uiso   1.00
H215   H     0.70301   0.14615  -0.04694   0.00000  Uiso   1.00
H216   H     0.75535   0.19159  -0.00910   0.00000  Uiso   1.00
H217   H     0.63253   0.09807  -0.13787   0.00000  Uiso   1.00
C218   C     0.82408   0.28240   0.03883   0.00000  Uiso   1.00
C219   C     0.88259   0.32507   0.00057   0.00000  Uiso   1.00
C220   C     0.94133   0.36044  -0.05331   0.00000  Uiso   1.00
C221   C     0.77740   0.25795  -0.04211   0.00000  Uiso   1.00
C222   C     0.84558   0.30375  -0.01346   0.00000  Uiso   1.00
C223   C     0.79041   0.25959   0.02454   0.00000  Uiso   1.00
C224   C     0.83199   0.30268   0.92020   0.00000  Uiso   1.00
C225   C     0.79811   0.28029   0.90629   0.00000  Uiso   1.00
C226   C     0.68941   0.21391   0.87647   0.00000  Uiso   1.00
C227   C     0.65183   0.15207   0.86795   0.00000  Uiso   1.00
C228   C     0.63257   0.10904   0.96865   0.00000  Uiso   1.00
C229   C     0.74361   0.23119   0.94040   0.00000  Uiso   1.00
C230   C     0.68516   0.53302   0.92090   0.00000  Uiso   1.00
C231   C     0.73301   0.51729   0.88599   0.00000  Uiso   1.00
H232   H     0.79125   0.44293   0.06950   0.00000  Uiso   1.00
C233   C     0.71891   0.51480   0.00588   0.00000  Uiso   1.00
C234   C     0.69166   0.52580  -0.01062   0.00000  Uiso   1.00
N235   N     0.87806   0.46890  -0.04445   0.00000  Uiso   1.00
N236   N     0.64732   0.56524   0.94377   0.00000  Uiso   1.00
O237   O     0.85790   0.45414   0.06325   0.00000  Uiso   1.00
O238   O     0.64368   0.53931   0.84554   0.00000  Uiso   1.00
H239   H     0.90704   0.44519   0.01483   0.00000  Uiso   1.00
H240   H     0.90153   0.43554   0.92624   0.00000  Uiso   1.00
H241   H     0.74250   0.46142   0.04757   0.00000  Uiso   1.00
H242   H     0.85426   0.51981   0.92145   0.00000  Uiso   1.00
H243   H     0.80565   0.53781   0.89914   0.00000  Uiso   1.00
H244   H     0.87441   0.47812   0.90686   0.00000  Uiso   1.00
H245   H     0.70124   0.53311   0.81633   0.00000  Uiso   1.00
H246   H     0.62272   0.58538   0.86638   0.00000  Uiso   1.00
H247   H     0.63054   0.60637  -0.05499   0.00000  Uiso   1.00
H248   H     0.74843   0.51380   0.84508   0.00000  Uiso   1.00
H249   H     0.67563   0.52831   0.03021   0.00000  Uiso   1.00
H250   H     0.72374   0.50991   0.05900   0.00000  Uiso   1.00
H251   H     0.65848   0.57058  -0.00801   0.00000  Uiso   1.00
C252   C     0.79470   0.46379   0.03244   0.00000  Uiso   1.00
C253   C     0.85517   0.46688   0.00731   0.00000  Uiso   1.00
C254   C     0.90630   0.45607  -0.03759   0.00000  Uiso   1.00
C255   C     0.77011   0.50071  -0.02912   0.00000  Uiso   1.00
C256   C     0.82630   0.47924  -0.00411   0.00000  Uiso   1.00
C257   C     0.76686   0.47440   0.02006   0.00000  Uiso   1.00
C258   C     0.82989   0.50637   0.94853   0.00000  Uiso   1.00
C259   C     0.80209   0.51686   0.93602   0.00000  Uiso   1.00
C260   C     0.70579   0.52806   0.86953   0.00000  Uiso   1.00
C261   C     0.65729   0.54574   0.90143   0.00000  Uiso   1.00
C262   C     0.62252   0.58100   0.92270   0.00000  Uiso   1.00
C263   C     0.74020   0.51095   0.95431   0.00000  Uiso   1.00
C264   C     0.15074   0.68817   1.00475   0.00000  Uiso   1.00
C265   C     0.20612   0.72362   0.95020   0.00000  Uiso   1.00
H266   H     0.33495   0.74161   0.09075   0.00000  Uiso   1.00
C267   C     0.20412   0.70946   0.07149   0.00000  Uiso   1.00
C268   C     0.16813   0.69079   0.06756   0.00000  Uiso   1.00
N269   N     0.38580   0.84076   1.02968   0.00000  Uiso   1.00
N270   N     0.09282   0.64523   0.05239   0.00000  Uiso   1.00
O271   O     0.39196   0.78912   0.04073   0.00000  Uiso   1.00
O272   O     0.09688   0.67589   0.95076   0.00000  Uiso   1.00
H273   H     0.42444   0.85577   0.10560   0.00000  Uiso   1.00
H274   H     0.43997   0.85131   1.02260   0.00000  Uiso   1.00
H275   H     0.27232   0.70833   0.08220   0.00000  Uiso   1.00
H276   H     0.32351   0.82132   0.95852   0.00000  Uiso   1.00
H277   H     0.26080   0.78871   0.95261   0.00000  Uiso   1.00
H278   H     0.36828   0.85319   1.02618   0.00000  Uiso   1.00
H279   H     0.15769   0.70324   0.89695   0.00000  Uiso   1.00
H280   H     0.04597   0.65387   1.03478   0.00000  Uiso   1.00
H281   H     0.04794   0.63225   0.11472   0.00000  Uiso   1.00
H282   H     0.22031   0.73615   0.90413   0.00000  Uiso   1.00
H283   H     0.15397   0.67926   0.11416   0.00000  Uiso   1.00
H284   H     0.21669   0.71168   0.12076   0.00000  Uiso   1.00
H285   H     0.10565   0.63380   0.08549   0.00000  Uiso   1.00
C286   C     0.31903   0.75206   0.06016   0.00000  Uiso   1.00
C287   C     0.37213   0.80416   0.03198   0.00000  Uiso   1.00
C288   C     0.42181   0.86007   0.04985   0.00000  Uiso   1.00
C289   C     0.26162   0.74605   0.01720   0.00000  Uiso   1.00
C290   C     0.33414   0.78427   0.02612   0.00000  Uiso   1.00
C291   C     0.28316   0.73319   0.05587   0.00000  Uiso   1.00
C292   C     0.31267   0.79701   0.98687   0.00000  Uiso   1.00
C293   C     0.27678   0.77810   0.98256   0.00000  Uiso   1.00
C294   C     0.17023   0.70476   0.94614   0.00000  Uiso   1.00
C295   C     0.11228   0.66987   1.00010   0.00000  Uiso   1.00
C296   C     0.05492   0.63451   1.05977   0.00000  Uiso   1.00
C297   C     0.22349   0.72606   1.01287   0.00000  Uiso   1.00
C298   C     0.46964   0.69605   0.08005   0.00000  Uiso   1.00
C299   C     0.49044   0.75790   0.07698   0.00000  Uiso   1.00
H300   H     0.44015   0.82690   0.86945   0.00000  Uiso   1.00
C301   C     0.46695   0.72780   0.97486   0.00000  Uiso   1.00
C302   C     0.46123   0.69678   1.01066   0.00000  Uiso   1.00
N303   N     0.52166   0.91851   0.88383   0.00000  Uiso   1.00
N304   N     0.46840   0.63556   1.09398   0.00000  Uiso   1.00
O305   O     0.47219   0.88769   0.83096   0.00000  Uiso   1.00
O306   O     0.44701   0.65947   0.17515   0.00000  Uiso   1.00
H307   H     0.55034   0.96307   0.82474   0.00000  Uiso   1.00
H308   H     0.50414   0.94803  -0.18912   0.00000  Uiso   1.00
H309   H     0.43478   0.77238   0.92429   0.00000  Uiso   1.00
H310   H     0.54385   0.87307  -0.04461   0.00000  Uiso   1.00
H311   H     0.53722   0.81899   0.01077   0.00000  Uiso   1.00
H312   H     0.54113   0.91961  -0.08113   0.00000  Uiso   1.00
H313   H     0.49037   0.72674   0.16678   0.00000  Uiso   1.00
H314   H     0.52308   0.65648   0.07869   0.00000  Uiso   1.00
H315   H     0.49771   0.65565   1.00301   0.00000  Uiso   1.00
H316   H     0.50125   0.78133   0.10362   0.00000  Uiso   1.00
H317   H     0.44926   0.67328   0.98469   0.00000  Uiso   1.00
H318   H     0.45986   0.72760   0.92154   0.00000  Uiso   1.00
H319   H     0.45597   0.61161   1.11882   0.00000  Uiso   1.00
C320   C     0.46191   0.82570   0.89926   0.00000  Uiso   1.00
C321   C     0.49490   0.88800   0.87152   0.00000  Uiso   1.00
C322   C     0.52445   0.95120   0.85042   0.00000  Uiso   1.00
C323   C     0.48561   0.79153   0.97158   0.00000  Uiso   1.00
C324   C     0.49243   0.85508   0.90696   0.00000  Uiso   1.00
C325   C     0.45871   0.79434   0.93066   0.00000  Uiso   1.00
C326   C     0.51953   0.85193  -0.05224   0.00000  Uiso   1.00
C327   C     0.51597   0.82061  -0.02014   0.00000  Uiso   1.00
C328   C     0.48420   0.72683   0.11297   0.00000  Uiso   1.00
C329   C     0.46106   0.66324   0.11947   0.00000  Uiso   1.00
C330   C     0.49900   0.64131   0.05114   0.00000  Uiso   1.00
C331   C     0.48138   0.75867   0.00787   0.00000  Uiso   1.00
C332   C     0.46789   0.13763   1.09576   0.00000  Uiso   1.00
C333   C     0.46698   0.18658   1.02637   0.00000  Uiso   1.00
H334   H     0.57094   0.31759   0.08246   0.00000  Uiso   1.00
C335   C     0.49373   0.19476   0.13785   0.00000  Uiso   1.00
C336   C     0.48502   0.15961   0.14727   0.00000  Uiso   1.00
N337   N     0.52620   0.36952  -0.04202   0.00000  Uiso   1.00
N338   N     0.48199   0.08811   0.14641   0.00000  Uiso   1.00
O339   O     0.57086   0.37088   0.02527   0.00000  Uiso   1.00
O340   O     0.43581   0.08055   1.07369   0.00000  Uiso   1.00
H341   H     0.57478   0.40884  -0.07364   0.00000  Uiso   1.00
H342   H     0.54138   0.39675   0.86320   0.00000  Uiso   1.00
H343   H     0.54798   0.25686   0.11193   0.00000  Uiso   1.00
H344   H     0.47373   0.30649   0.98156   0.00000  Uiso   1.00
H345   H     0.45116   0.24602   1.01155   0.00000  Uiso   1.00
H346   H     0.49998   0.35780   0.94508   0.00000  Uiso   1.00
H347   H     0.44497   0.13506   0.99530   0.00000  Uiso   1.00
H348   H     0.44523   0.03835   1.17084   0.00000  Uiso   1.00
H349   H     0.48761   0.04840   0.20807   0.00000  Uiso   1.00
H350   H     0.46034   0.19647   0.97855   0.00000  Uiso   1.00
H351   H     0.49164   0.14968   0.19506   0.00000  Uiso   1.00
H352   H     0.50713   0.21097   0.17845   0.00000  Uiso   1.00
H353   H     0.50627   0.10512   0.16224   0.00000  Uiso   1.00
C354   C     0.54452   0.30251   0.06730   0.00000  Uiso   1.00
C355   C     0.54167   0.35426   0.00441   0.00000  Uiso   1.00
C356   C     0.54619   0.40107  -0.08158   0.00000  Uiso   1.00
C357   C     0.49779   0.24646   0.06385   0.00000  Uiso   1.00
C358   C     0.52477   0.31755   0.02838   0.00000  Uiso   1.00
C359   C     0.53129   0.26758   0.08466   0.00000  Uiso   1.00
C360   C     0.49054   0.29653   1.01007   0.00000  Uiso   1.00
C361   C     0.47733   0.26147   1.02742   0.00000  Uiso   1.00
C362   C     0.45828   0.15140   1.03583   0.00000  Uiso   1.00
C363   C     0.46031   0.10058   1.10410   0.00000  Uiso   1.00
C364   C     0.47376   0.05181   0.16110   0.00000  Uiso   1.00
C365   C     0.48541   0.20879   1.07676   0.00000  Uiso   1.00
loop_
_geom_bond_atom_site_label_1
_geom_bond_atom_site_label_2
_geom_bond_distance
_geom_bond_site_symmetry_2
_ccdc_geom_bond_type
Pr0    O3      2.321   .     S
Pr0    O5      2.271   .     S
Pr0    O6      2.260   .     S
Pr0    O7      2.326   .     S
Pr0    O14     2.326   .     S
Pr0    O4      2.270   1_554 S
Pr0    O18     2.249   1_554 S
Pr1    O2      2.332   .     S
Pr1    O15     2.306   .     S
Pr1    O17     2.264   .     S
Pr1    O18     2.255   .     S
Pr1    O19     2.325   .     S
Pr1    O6      2.240   1_556 S
Pr1    O16     2.269   1_556 S
O2     C9      1.309   1_556 A
O3     C9      1.306   .     A
O4     C10     1.276   .     A
O4     Pr0     2.270   1_556 S
O5     C10     1.277   1_554 A
O6     C13     1.365   .     S
O6     Pr1     2.240   1_554 S
O7     C13     1.206   .     D
C8     O18     1.370   .     S
C8     O19     1.210   .     D
C8     C92     1.494   .     S
C9     C186    1.498   .     S
C9     O2      1.309   1_554 A
C10    O5      1.277   1_556 A
C10    C330    1.496   1_556 S
C11    O16     1.278   .     A
C11    C356    1.492   .     S
C11    O17     1.277   1_554 A
C12    O15     1.301   .     A
C12    C262    1.495   .     S
C12    O14     1.305   1_556 A
C13    C84     1.492   .     S
O14    C12     1.305   1_554 A
O16    Pr1     2.269   1_554 S
O17    C11     1.277   1_556 A
O18    Pr0     2.249   1_556 S
Pr20   O23     2.339   .     S
Pr20   O25     2.302   .     S
Pr20   O27     2.336   .     S
Pr20   O24     2.294   1_556 S
Pr20   O26     2.326   1_655 S
Pr20   O34     2.334   1_655 S
Pr20   O38     2.279   1_556 S
Pr21   O35     2.336   .     S
Pr21   O37     2.292   .     S
Pr21   O39     2.360   .     S
Pr21   O22     2.282   1_455 S
Pr21   O26     2.356   1_554 S
Pr21   O36     2.298   1_554 S
Pr21   O38     2.374   1_455 S
O22    Pr21    2.282   1_655 S
O22    C29     1.267   1_554 A
O23    C29     1.293   .     A
O24    C30     1.260   .     A
O24    Pr20    2.294   1_554 S
O25    C30     1.261   1_556 A
O26    C33     1.378   .     S
O26    Pr20    2.326   1_455 S
O26    Pr21    2.356   1_556 S
O27    C33     1.208   1_655 D
C28    O39     1.193   .     D
C28    O38     1.340   1_455 S
C28    C126    1.491   1_455 S
C29    O22     1.267   1_556 A
C29    C254    1.502   1_556 S
C30    C220    1.494   .     S
C30    O25     1.261   1_554 A
C31    O36     1.276   .     A
C31    C296    1.496   .     S
C31    O37     1.268   1_556 A
C32    O35     1.297   .     A
C32    O34     1.292   1_554 A
C32    C194    1.493   1_554 S
C33    C118    1.495   .     S
C33    O27     1.208   1_455 D
O34    Pr20    2.334   1_455 S
O34    C32     1.292   1_556 A
O36    Pr21    2.298   1_556 S
O37    C31     1.268   1_554 A
O38    Pr20    2.279   1_554 S
O38    Pr21    2.374   1_655 S
O38    C28     1.340   1_655 S
Pr40   O43     2.257   .     S
Pr40   O45     2.266   .     S
Pr40   O47     2.322   .     S
Pr40   O44     2.274   1_554 S
Pr40   O46     2.333   1_545 S
Pr40   O54     2.247   1_544 S
Pr40   O58     2.284   1_554 S
Pr41   O55     2.388   .     S
Pr41   O57     2.287   .     S
Pr41   O59     2.337   .     S
Pr41   O42     2.373   1_566 S
Pr41   O46     2.306   1_556 S
Pr41   O56     2.287   1_556 S
Pr41   O58     2.320   1_565 S
O42    C49     1.297   .     A
O42    Pr41    2.373   1_544 S
O43    C49     1.284   .     A
O44    C50     1.276   .     A
O44    Pr40    2.274   1_556 S
O45    C50     1.274   1_554 A
O46    Pr40    2.333   1_565 S
O46    Pr41    2.306   1_554 S
O46    C53     1.379   1_565 S
O47    C53     1.208   .     D
C48    O59     1.199   .     D
C48    C160    1.501   .     S
C48    O58     1.357   1_565 S
C49    C364    1.497   .     S
C50    C228    1.492   .     S
C50    O45     1.274   1_556 A
C51    O56     1.267   .     A
C51    C288    1.492   .     S
C51    O57     1.266   1_554 A
C52    O54     1.273   .     A
C52    O55     1.305   .     A
C52    C322    1.497   .     S
C53    C152    1.495   .     S
C53    O46     1.379   1_545 S
O54    Pr40    2.247   1_566 S
O56    Pr41    2.287   1_554 S
O57    C51     1.266   1_556 A
O58    Pr40    2.284   1_556 S
O58    Pr41    2.320   1_545 S
O58    C48     1.357   1_545 S
C60    C64     1.406   .     A
C60    C90     1.406   .     A
C60    C91     1.485   .     S
C61    H78     1.083   .     S
C61    C90     1.398   .     A
C61    C93     1.406   .     A
H62    C82     1.083   .     S
C63    C64     1.398   .     A
C63    H80     1.083   .     S
C63    C93     1.406   .     A
C64    H79     1.082   .     S
N65    H74     1.045   .     S
N65    C83     1.373   .     S
N65    C84     1.463   .     S
N66    H81     1.044   .     S
N66    C91     1.375   .     S
N66    C92     1.463   .     S
O67    C83     1.221   .     D
O68    C91     1.221   .     D
H69    C84     1.111   .     S
H70    C84     1.111   .     S
H71    C87     1.082   .     S
H72    C88     1.083   .     S
H73    C89     1.083   .     S
H75    C90     1.083   .     S
H76    C92     1.112   .     S
H77    C92     1.111   .     S
C82    C86     1.403   .     A
C82    C87     1.396   .     A
C83    C86     1.480   .     S
C85    C87     1.406   .     A
C85    C89     1.407   .     A
C85    C93     1.487   .     S
C86    C88     1.405   .     A
C88    C89     1.398   .     A
C94    C98     1.409   .     A
C94    C124    1.406   1_455 A
C94    C125    1.486   1_455 S
C95    H112    1.083   .     S
C95    C124    1.397   .     A
C95    C127    1.403   1_655 A
H96    C116    1.083   .     S
C97    C98     1.398   .     A
C97    H114    1.083   .     S
C97    C127    1.402   .     A
C98    H113    1.081   .     S
N99    H108    1.044   .     S
N99    C117    1.373   .     S
N99    C118    1.463   .     S
N100   H115    1.044   .     S
N100   C125    1.373   .     S
N100   C126    1.462   .     S
O101   C117    1.221   .     D
O102   C125    1.221   .     D
H103   C118    1.112   .     S
H104   C118    1.111   .     S
H105   C121    1.083   .     S
H106   C122    1.082   .     S
H107   C123    1.083   .     S
H109   C124    1.084   .     S
H110   C126    1.111   .     S
H111   C126    1.110   .     S
C116   C120    1.406   .     A
C116   C121    1.397   .     A
C117   C120    1.485   .     S
C119   C121    1.403   .     A
C119   C127    1.480   .     S
C119   C123    1.404   1_455 A
C120   C122    1.407   1_455 A
C122   C123    1.397   .     A
C122   C120    1.407   1_655 A
C123   C119    1.404   1_655 A
C124   C94     1.406   1_655 A
C125   C94     1.486   1_655 S
C126   C28     1.491   1_655 S
C127   C95     1.403   1_455 A
C128   C158    1.402   .     A
C128   C159    1.481   .     S
C128   C132    1.404   1_565 A
C129   H146    1.083   .     S
C129   C158    1.396   .     A
C129   C161    1.410   .     A
H130   C150    1.083   .     S
C131   C132    1.405   .     A
C131   H148    1.083   .     S
C131   C161    1.355   1_545 D
C132   H147    1.083   .     S
C132   C128    1.404   1_545 A
N133   C151    1.378   .     S
N133   C152    1.468   .     S
N133   H142    1.043   1_545 S
N134   H149    1.045   .     S
N134   C159    1.438   1_545 S
N134   C160    1.466   1_545 S
O135   C151    1.220   .     D
O136   C159    1.220   .     D
H137   C152    1.110   .     S
H138   C152    1.108   1_565 S
H139   C155    1.083   .     S
H140   C156    1.081   .     S
H141   C157    1.083   .     S
H142   N133    1.043   1_565 S
H143   C158    1.083   .     S
H144   C160    1.111   .     S
H145   C160    1.111   1_545 S
C150   C154    1.409   .     A
C150   C155    1.399   .     A
C151   C154    1.493   .     S
C152   H138    1.108   1_545 S
C153   C155    1.405   .     A
C153   C157    1.407   1_545 A
C153   C161    1.492   1_545 S
C154   C156    1.407   1_545 A
C156   C157    1.400   .     A
C156   C154    1.407   1_565 A
C157   C153    1.407   1_565 A
C159   N134    1.438   1_565 S
C160   N134    1.466   1_565 S
C160   H145    1.111   1_565 S
C161   C131    1.355   1_565 D
C161   C153    1.492   1_565 S
C162   C192    1.407   .     A
C162   C193    1.487   .     S
C162   C166    1.406   1_556 A
C163   H180    1.083   .     S
C163   C192    1.401   .     A
C163   C195    1.405   .     A
H164   C184    1.083   .     S
C165   C166    1.395   .     A
C165   H182    1.083   .     S
C165   C195    1.404   1_554 A
C166   H181    1.081   .     S
C166   C162    1.406   1_554 A
N167   H176    1.043   .     S
N167   C185    1.439   1_556 S
N167   C186    1.464   1_556 S
N168   H183    1.045   .     S
N168   C193    1.434   1_554 S
N168   C194    1.462   1_554 S
O169   C185    1.220   .     D
O170   C193    1.220   .     D
H171   C186    1.111   .     S
H172   C186    1.112   1_556 S
H173   C189    1.083   .     S
H174   C190    1.081   .     S
H175   C191    1.083   .     S
H177   C192    1.083   .     S
H178   C194    1.112   .     S
H179   C194    1.110   1_554 S
C184   C188    1.405   .     A
C184   C189    1.394   .     A
C185   C188    1.486   .     S
C185   N167    1.439   1_554 S
C186   N167    1.464   1_554 S
C186   H172    1.112   1_554 S
C187   C189    1.404   .     A
C187   C191    1.406   1_554 A
C187   C195    1.486   1_554 S
C188   C190    1.408   1_554 A
C190   C191    1.403   .     A
C190   C188    1.408   1_556 A
C191   C187    1.406   1_556 A
C193   N168    1.434   1_556 S
C194   N168    1.462   1_556 S
C194   H179    1.110   1_556 S
C194   C32     1.493   1_556 S
C195   C165    1.404   1_556 A
C195   C187    1.486   1_556 S
C196   C226    1.405   .     A
C196   C227    1.483   .     S
C196   C200    1.407   1_556 A
C197   H214    1.083   .     S
C197   C226    1.396   .     A
C197   C229    1.406   .     A
H198   C218    1.083   .     S
C199   C200    1.399   .     A
C199   H216    1.084   .     S
C199   C229    1.350   1_554 D
C200   H215    1.081   .     S
C200   C196    1.407   1_554 A
N201   H210    1.045   .     S
N201   C219    1.436   1_556 S
N201   C220    1.462   1_556 S
N202   H217    1.045   .     S
N202   C227    1.432   1_554 S
N202   C228    1.462   1_554 S
O203   C219    1.221   .     D
O204   C227    1.220   .     D
H205   C220    1.111   .     S
H206   C220    1.111   1_556 S
H207   C223    1.083   .     S
H208   C224    1.081   .     S
H209   C225    1.083   .     S
H211   C226    1.083   .     S
H212   C228    1.112   .     S
H213   C228    1.111   1_554 S
C218   C222    1.408   .     A
C218   C223    1.397   .     A
C219   C222    1.484   .     S
C219   N201    1.436   1_554 S
C220   N201    1.462   1_554 S
C220   H206    1.111   1_554 S
C221   C223    1.403   .     A
C221   C225    1.402   1_554 A
C221   C229    1.478   1_554 S
C222   C224    1.407   1_554 A
C224   C225    1.395   .     A
C224   C222    1.407   1_556 A
C225   C221    1.402   1_556 A
C227   N202    1.432   1_556 S
C228   N202    1.462   1_556 S
C228   H213    1.111   1_556 S
C229   C199    1.350   1_556 D
C229   C221    1.478   1_556 S
C230   C260    1.404   .     A
C230   C261    1.485   .     S
C230   C234    1.408   1_556 A
C231   H248    1.083   .     S
C231   C260    1.395   .     A
C231   C263    1.404   .     A
H232   C252    1.083   .     S
C233   C234    1.402   .     A
C233   H250    1.083   .     S
C233   C263    1.406   1_554 A
C234   H249    1.082   .     S
C234   C230    1.408   1_554 A
N235   C253    1.375   .     S
N235   C254    1.466   .     S
N235   H244    1.045   1_554 S
N236   C261    1.374   .     S
N236   C262    1.466   .     S
N236   H251    1.045   1_556 S
O237   C253    1.221   .     D
O238   C261    1.222   .     D
H239   C254    1.110   .     S
H240   C254    1.111   1_556 S
H241   C257    1.083   .     S
H242   C258    1.082   .     S
H243   C259    1.083   .     S
H244   N235    1.045   1_556 S
H245   C260    1.083   .     S
H246   C262    1.111   .     S
H247   C262    1.112   1_554 S
H251   N236    1.045   1_554 S
C252   C256    1.407   .     A
C252   C257    1.401   .     A
C253   C256    1.485   .     S
C254   H240    1.111   1_554 S
C254   C29     1.502   1_554 S
C255   C257    1.405   .     A
C255   C259    1.405   1_554 A
C255   C263    1.486   1_554 S
C256   C258    1.405   1_554 A
C258   C259    1.396   .     A
C258   C256    1.405   1_556 A
C259   C255    1.405   1_556 A
C262   H247    1.112   1_556 S
C263   C233    1.406   1_556 A
C263   C255    1.486   1_556 S
C264   C294    1.407   .     A
C264   C295    1.486   .     S
C264   C268    1.407   1_556 A
C265   H282    1.083   .     S
C265   C294    1.397   .     A
C265   C297    1.404   .     A
H266   C286    1.084   .     S
C267   C268    1.399   .     A
C267   H284    1.083   .     S
C267   C297    1.405   1_554 A
C268   H283    1.082   .     S
C268   C264    1.407   1_554 A
N269   H278    1.045   .     S
N269   C287    1.436   1_556 S
N269   C288    1.462   1_556 S
N270   H285    1.045   .     S
N270   C295    1.438   1_554 S
N270   C296    1.464   1_554 S
O271   C287    1.221   .     D
O272   C295    1.220   .     D
H273   C288    1.111   .     S
H274   C288    1.110   1_556 S
H275   C291    1.083   .     S
H276   C292    1.082   .     S
H277   C293    1.083   .     S
H279   C294    1.083   .     S
H280   C296    1.112   .     S
H281   C296    1.110   1_554 S
C286   C290    1.405   .     A
C286   C291    1.397   .     A
C287   C290    1.481   .     S
C287   N269    1.436   1_554 S
C288   N269    1.462   1_554 S
C288   H274    1.110   1_554 S
C289   C291    1.405   .     A
C289   C293    1.405   1_554 A
C289   C297    1.484   1_554 S
C290   C292    1.406   1_554 A
C292   C293    1.398   .     A
C292   C290    1.406   1_556 A
C293   C289    1.405   1_556 A
C295   N270    1.438   1_556 S
C296   N270    1.464   1_556 S
C296   H281    1.110   1_556 S
C297   C267    1.405   1_556 A
C297   C289    1.484   1_556 S
C298   C328    1.403   .     A
C298   C329    1.478   .     S
C298   C302    1.403   1_554 A
C299   H316    1.083   .     S
C299   C328    1.398   .     A
C299   C331    1.404   .     A
H300   C320    1.083   .     S
C301   C302    1.398   .     A
C301   H318    1.083   .     S
C301   C331    1.406   1_556 A
C302   H317    1.083   .     S
C302   C298    1.403   1_556 A
N303   C321    1.378   .     S
N303   C322    1.468   .     S
N303   H312    1.041   1_556 S
N304   H319    1.046   .     S
N304   C329    1.435   1_556 S
N304   C330    1.464   1_556 S
O305   C321    1.220   .     D
O306   C329    1.219   .     D
H307   C322    1.111   .     S
H308   C322    1.110   1_554 S
H309   C325    1.083   .     S
H310   C326    1.079   .     S
H311   C327    1.083   .     S
H312   N303    1.041   1_554 S
H313   C328    1.083   .     S
H314   C330    1.111   .     S
H315   C330    1.108   1_556 S
C320   C324    1.411   .     A
C320   C325    1.397   .     A
C321   C324    1.496   .     S
C322   H308    1.110   1_556 S
C323   C325    1.401   .     A
C323   C327    1.402   1_556 A
C323   C331    1.483   1_556 S
C324   C326    1.412   1_556 A
C326   C327    1.398   .     A
C326   C324    1.412   1_554 A
C327   C323    1.402   1_554 A
C329   N304    1.435   1_554 S
C330   N304    1.464   1_554 S
C330   H315    1.108   1_554 S
C330   C10     1.496   1_554 S
C331   C301    1.406   1_554 A
C331   C323    1.483   1_554 S
C332   C362    1.405   .     A
C332   C363    1.483   .     S
C332   C336    1.404   1_556 A
C333   H350    1.083   .     S
C333   C362    1.400   .     A
C333   C365    1.407   .     A
H334   C354    1.083   .     S
C335   C336    1.398   .     A
C335   H352    1.083   .     S
C335   C365    1.407   1_554 A
C336   H351    1.082   .     S
C336   C332    1.404   1_554 A
N337   C355    1.377   .     S
N337   C356    1.466   .     S
N337   H346    1.042   1_554 S
N338   H353    1.045   .     S
N338   C364    1.460   .     S
N338   C363    1.438   1_554 S
O339   C355    1.222   .     D
O340   C363    1.220   .     D
H341   C356    1.111   .     S
H342   C356    1.112   1_556 S
H343   C359    1.083   .     S
H344   C360    1.078   .     S
H345   C361    1.083   .     S
H346   N337    1.042   1_556 S
H347   C362    1.083   .     S
H348   C364    1.113   1_556 S
H349   C364    1.111   .     S
C354   C358    1.409   .     A
C354   C359    1.397   .     A
C355   C358    1.498   .     S
C356   H342    1.112   1_554 S
C357   C359    1.404   .     A
C357   C361    1.406   1_554 A
C357   C365    1.491   1_554 S
C358   C360    1.411   1_554 A
C360   C361    1.402   .     A
C360   C358    1.411   1_556 A
C361   C357    1.406   1_556 A
C363   N338    1.438   1_556 S
C364   H348    1.113   1_554 S
C365   C335    1.407   1_556 A
C365   C357    1.491   1_556 S
