data_kag+N106+E59
_audit_creation_date              2025-01-21
_audit_creation_method            'Materials Studio'
_symmetry_space_group_name_H-M    'P1'
_symmetry_Int_Tables_number       1
_symmetry_cell_setting            triclinic
loop_
_symmetry_equiv_pos_as_xyz
  x,y,z
_cell_length_a                    45.3686
_cell_length_b                    47.8967
_cell_length_c                    20.8955
_cell_angle_alpha                 89.8272
_cell_angle_beta                  89.7063
_cell_angle_gamma                 126.8149
loop_
_atom_site_label
_atom_site_type_symbol
_atom_site_fract_x
_atom_site_fract_y
_atom_site_fract_z
_atom_site_U_iso_or_equiv
_atom_site_adp_type
_atom_site_occupancy
Y0     Y     0.52713   0.55230   0.00758   0.00000  Uiso   1.00
Y1     Y     0.51027   0.47806   0.97880   0.00000  Uiso   1.00
O2     O     0.58006   0.56795  -0.03818   0.00000  Uiso   1.00
O3     O     0.52332   0.52331   0.91856   0.00000  Uiso   1.00
C4     C     0.50328   0.41796   0.98528   0.00000  Uiso   1.00
O5     O     0.47456   0.47251   0.89628   0.00000  Uiso   1.00
O6     O     0.53114   0.59608   0.05843   0.00000  Uiso   1.00
O7     O     0.53295   0.59724   0.95783   0.00000  Uiso   1.00
O8     O     0.57270   0.51706   0.96968   0.00000  Uiso   1.00
O9     O     0.51320   0.50665   0.06715   0.00000  Uiso   1.00
O10    O     0.56265   0.55682   0.08960   0.00000  Uiso   1.00
O11    O     0.46482   0.51377   0.01293   0.00000  Uiso   1.00
C12    C     0.59260   0.55007   0.95819   0.00000  Uiso   1.00
O13    O     0.45689   0.46269   1.02271   0.00000  Uiso   1.00
C14    C     0.49143   0.50336   0.88379   0.00000  Uiso   1.00
O15    O     0.50456   0.43214   0.93326   0.00000  Uiso   1.00
O16    O     0.50650   0.43534   0.03343   0.00000  Uiso   1.00
C17    C     0.53456   0.61250   0.00820   0.00000  Uiso   1.00
C18    C     0.44453   0.48078   0.02432   0.00000  Uiso   1.00
C19    C     0.54498   0.52592   0.10211   0.00000  Uiso   1.00
Y20    Y     0.96962   0.49279   0.02238   0.00000  Uiso   1.00
Y21    Y     0.03720   0.49783   0.96062   0.00000  Uiso   1.00
O22    O     0.00945   0.55047   0.00187   0.00000  Uiso   1.00
O23    O     0.99802   0.50868   0.92559   0.00000  Uiso   1.00
C24    C     0.10020   0.50799   0.92573   0.00000  Uiso   1.00
O25    O     0.00036   0.47135   0.87440   0.00000  Uiso   1.00
O26    O     0.92404   0.47659   0.09273   0.00000  Uiso   1.00
O27    O     0.91617   0.48409   0.99702   0.00000  Uiso   1.00
O28    O     0.06055   0.55290   0.99148   0.00000  Uiso   1.00
O29    O     0.00843   0.48152   0.05726   0.00000  Uiso   1.00
O30    O     1.00488   0.51759   0.11074   0.00000  Uiso   1.00
O31    O     0.94712   0.43748  -0.00558   0.00000  Uiso   1.00
C32    C     0.04464   0.56757   0.99971   0.00000  Uiso   1.00
O33    O     0.99852   0.44074   0.98406   0.00000  Uiso   1.00
C34    C    -0.01597   0.48411   0.87809   0.00000  Uiso   1.00
O35    O     0.08044   0.51052   0.88771   0.00000  Uiso   1.00
O36    O     0.08785   0.50096  -0.01761   0.00000  Uiso   1.00
C37    C     0.90228   0.47457   0.05246   0.00000  Uiso   1.00
C38    C     0.96342   0.42311  -0.01243   0.00000  Uiso   1.00
C39    C     0.02151   0.50510   0.10642   0.00000  Uiso   1.00
Y40    Y     0.48355   0.02698   0.97989   0.00000  Uiso   1.00
Y41    Y     0.50113   0.97442   0.02732   0.00000  Uiso   1.00
O42    O     0.42808   0.97549   1.00078   0.00000  Uiso   1.00
O43    O     0.50089   0.01671   0.07310   0.00000  Uiso   1.00
C44    C     0.52427   0.93405   0.03227   0.00000  Uiso   1.00
O45    O     0.46848   0.96608   0.11763   0.00000  Uiso   1.00
O46    O     0.46227   0.04905   0.91547   0.00000  Uiso   1.00
O47    O     0.46723   0.06095   0.01336   0.00000  Uiso   1.00
O48    O     0.44121   0.93693   0.00229   0.00000  Uiso   1.00
O49    O     0.48399   0.98472   0.93460   0.00000  Uiso   1.00
O50    O     0.51762   0.03558   0.89160   0.00000  Uiso   1.00
O51    O     0.54288   0.06469   1.00790   0.00000  Uiso   1.00
C52    C     0.41815   0.94413   0.00159   0.00000  Uiso   1.00
O53    O     0.55682   0.02658   0.00939   0.00000  Uiso   1.00
C54    C     0.47531  -0.00519   0.11886   0.00000  Uiso   1.00
O55    O     0.52327   0.94925   0.08062   0.00000  Uiso   1.00
O56    O     0.51305   0.93958   0.98230   0.00000  Uiso   1.00
C57    C     0.45771   0.06434   0.95898   0.00000  Uiso   1.00
C58    C     0.56625   0.05784   1.00852   0.00000  Uiso   1.00
C59    C     0.51070   0.00687   0.89048   0.00000  Uiso   1.00
C60    C     0.48381   0.50309   0.65390   0.00000  Uiso   1.00
C61    C     0.47452   0.50104   0.53853   0.00000  Uiso   1.00
H62    H     0.60172   0.56713   0.37006   0.00000  Uiso   1.00
C63    C     0.53204   0.51583   0.57921   0.00000  Uiso   1.00
C64    C     0.51915   0.51214   0.64201   0.00000  Uiso   1.00
N65    N     0.54271   0.51200   0.21511   0.00000  Uiso   1.00
N66    N     0.49253   0.51702   0.77086   0.00000  Uiso   1.00
O67    O     0.59828   0.54076   0.26106   0.00000  Uiso   1.00
O68    O     0.43609   0.48020   0.72901   0.00000  Uiso   1.00
H69    H     0.58576   0.52455   0.14939   0.00000  Uiso   1.00
H70    H     0.54216   0.48298   0.13931   0.00000  Uiso   1.00
H71    H     0.57890   0.56099   0.47910   0.00000  Uiso   1.00
H72    H     0.49515   0.47500   0.31524   0.00000  Uiso   1.00
H73    H     0.47250   0.46920   0.42374   0.00000  Uiso   1.00
H74    H     0.51473   0.50073   0.22001   0.00000  Uiso   1.00
H75    H     0.43429   0.49036   0.60847   0.00000  Uiso   1.00
H76    H     0.44917   0.50277   0.83743   0.00000  Uiso   1.00
H77    H     0.49171   0.54514   0.84735   0.00000  Uiso   1.00
H78    H     0.45689   0.49691   0.49918   0.00000  Uiso   1.00
H79    H     0.53676   0.51577   0.68085   0.00000  Uiso   1.00
H80    H     0.55906   0.52217   0.57160   0.00000  Uiso   1.00
H81    H     0.52096   0.53363   0.76331   0.00000  Uiso   1.00
C82    C     0.57338   0.54572   0.38108   0.00000  Uiso   1.00
C83    C     0.56520   0.52556   0.26769   0.00000  Uiso   1.00
C84    C     0.55551   0.51069   0.15138   0.00000  Uiso   1.00
C85    C     0.52379   0.51469   0.46004   0.00000  Uiso   1.00
C86    C     0.55019   0.52209   0.33321   0.00000  Uiso   1.00
C87    C     0.56037   0.54211   0.44365   0.00000  Uiso   1.00
C88    C     0.51361   0.49455   0.34976   0.00000  Uiso   1.00
C89    C     0.50058   0.49103   0.41231   0.00000  Uiso   1.00
C90    C     0.46161   0.49731   0.60122   0.00000  Uiso   1.00
C91    C     0.46937   0.49917   0.72022   0.00000  Uiso   1.00
C92    C     0.47958   0.51768   0.83498   0.00000  Uiso   1.00
C93    C     0.50998   0.51055   0.52676   0.00000  Uiso   1.00
C94    C     1.02870   0.49054   0.33235   0.00000  Uiso   1.00
C95    C     1.00208   0.46271   0.43579   0.00000  Uiso   1.00
H96    H    -0.02769   0.53365   0.61795   0.00000  Uiso   1.00
C97    C     0.03163   0.52440   0.42212   0.00000  Uiso   1.00
C98    C     1.03978   0.52248   0.35843   0.00000  Uiso   1.00
N99    N     0.96272   0.47379   0.76861   0.00000  Uiso   1.00
N100   N     0.04033   0.51208   0.21719   0.00000  Uiso   1.00
O101   O    -0.02482   0.52624   0.73940   0.00000  Uiso   1.00
O102   O     1.03881   0.46505   0.24816   0.00000  Uiso   1.00
H103   H    -0.05291   0.49387   0.84142   0.00000  Uiso   1.00
H104   H     0.92810   0.44864   0.84899   0.00000  Uiso   1.00
H105   H    -0.01221   0.53045   0.50755   0.00000  Uiso   1.00
H106   H     0.00110   0.46640   0.67761   0.00000  Uiso   1.00
H107   H     0.01623   0.46306   0.56738   0.00000  Uiso   1.00
H108   H     0.95940   0.45124   0.75394   0.00000  Uiso   1.00
H109   H     1.00147   0.43582   0.35347   0.00000  Uiso   1.00
H110   H     0.05843   0.49506   0.14241   0.00000  Uiso   1.00
H111   H     0.07643   0.54016   0.13990   0.00000  Uiso   1.00
H112   H     0.98707   0.43917   0.46475   0.00000  Uiso   1.00
H113   H     0.05530   0.54622   0.33016   0.00000  Uiso   1.00
H114   H     0.04080   0.54944   0.44091   0.00000  Uiso   1.00
H115   H     0.03423   0.52919   0.22987   0.00000  Uiso   1.00
C116   C    -0.01815   0.51813   0.60755   0.00000  Uiso   1.00
C117   C    -0.02574   0.50127   0.72324   0.00000  Uiso   1.00
C118   C     0.95318   0.47478   0.83508   0.00000  Uiso   1.00
C119   C     0.00313   0.49643   0.52871   0.00000  Uiso   1.00
C120   C    -0.01549   0.49958   0.65653   0.00000  Uiso   1.00
C121   C    -0.00907   0.51649   0.54438   0.00000  Uiso   1.00
C122   C    -0.00272   0.47994   0.64100   0.00000  Uiso   1.00
C123   C     0.00626   0.47822   0.57775   0.00000  Uiso   1.00
C124   C     1.01022   0.46078   0.37204   0.00000  Uiso   1.00
C125   C     1.03644   0.48810   0.26431   0.00000  Uiso   1.00
C126   C     0.05153   0.51343   0.15079   0.00000  Uiso   1.00
C127   C     0.01245   0.49449   0.46140   0.00000  Uiso   1.00
C128   C     0.52734   0.01493   0.66785   0.00000  Uiso   1.00
C129   C     0.53918   0.02225   0.55317   0.00000  Uiso   1.00
H130   H     0.41713   0.93976   0.38255   0.00000  Uiso   1.00
C131   C     0.47751   0.99562   0.59370   0.00000  Uiso   1.00
C132   C     0.49017   1.00000   0.65615   0.00000  Uiso   1.00
N133   N     0.47262   0.00623   0.23024   0.00000  Uiso   1.00
N134   N     0.51775  -0.00444   0.78107   0.00000  Uiso   1.00
O135   O     0.41577   0.96311   0.27276   0.00000  Uiso   1.00
O136   O     0.57272   0.04249   0.74605   0.00000  Uiso   1.00
H137   H     0.42886   0.98765   0.16386   0.00000  Uiso   1.00
H138   H     0.46836   0.03232   0.15404   0.00000  Uiso   1.00
H139   H     0.43959   0.94853   0.49202   0.00000  Uiso   1.00
H140   H     0.51115   0.04455   0.33345   0.00000  Uiso   1.00
H141   H     0.53351   0.05282   0.44229   0.00000  Uiso   1.00
H142   H     0.50110   0.02173   0.23658   0.00000  Uiso   1.00
H143   H     0.58053   0.03763   0.62328   0.00000  Uiso   1.00
H144   H     0.55959   0.01633   0.85226   0.00000  Uiso   1.00
H145   H     0.52156   0.97111   0.86068   0.00000  Uiso   1.00
H146   H     0.55844   0.03074   0.51374   0.00000  Uiso   1.00
H147   H     0.47079   0.99205   0.69508   0.00000  Uiso   1.00
H148   H     0.44872   0.98402   0.58615   0.00000  Uiso   1.00
H149   H     0.49085   0.97442   0.77002   0.00000  Uiso   1.00
C150   C     0.44243   0.96467   0.39506   0.00000  Uiso   1.00
C151   C     0.44837   0.98573   0.28272   0.00000  Uiso   1.00
C152   C     0.45938   0.00568   0.16639   0.00000  Uiso   1.00
C153   C     0.48820   1.00138   0.47544   0.00000  Uiso   1.00
C154   C     0.46242   0.99129   0.34889   0.00000  Uiso   1.00
C155   C     0.45519   0.96967   0.45768   0.00000  Uiso   1.00
C156   C     0.49537   0.02310   0.36697   0.00000  Uiso   1.00
C157   C     0.50818   0.02800   0.42952   0.00000  Uiso   1.00
C158   C     0.55179   0.02626   0.61572   0.00000  Uiso   1.00
C159   C     0.54075   0.01871   0.73395   0.00000  Uiso   1.00
C160   C     0.52930  -0.00287   0.84683   0.00000  Uiso   1.00
C161   C     0.50184   0.00657   0.54162   0.00000  Uiso   1.00
C162   C     0.18725   0.48610  -0.01001   0.00000  Uiso   1.00
C163   C     0.21785   0.46214   1.03199   0.00000  Uiso   1.00
H164   H     0.37586   0.55225   0.06808   0.00000  Uiso   1.00
C165   C     0.25403   0.51992  -0.01539   0.00000  Uiso   1.00
C166   C     0.22183   0.51676  -0.02697   0.00000  Uiso   1.00
N167   N     0.38936   0.47819   0.01299   0.00000  Uiso   1.00
N168   N     0.15374   0.51148   0.95914   0.00000  Uiso   1.00
O169   O     0.40778   0.52217   1.08413   0.00000  Uiso   1.00
O170   O     0.12411   0.45254  -0.03151   0.00000  Uiso   1.00
H171   H     0.40414   0.46454   0.09715   0.00000  Uiso   1.00
H172   H     0.38867   0.43463   0.03205   0.00000  Uiso   1.00
H173   H     0.31989   0.54843   0.05553   0.00000  Uiso   1.00
H174   H     0.31737   0.44602   1.00370   0.00000  Uiso   1.00
H175   H     0.26184   0.44238   0.99038   0.00000  Uiso   1.00
H176   H     0.37858   0.46979  -0.03292   0.00000  Uiso   1.00
H177   H     0.15940   0.43514   1.03462   0.00000  Uiso   1.00
H178   H     0.12675   0.49154   0.86993   0.00000  Uiso   1.00
H179   H     0.15283   0.53792   0.87953   0.00000  Uiso   1.00
H180   H     0.21578   0.44079   1.05528   0.00000  Uiso   1.00
H181   H     0.22400   0.53791  -0.05130   0.00000  Uiso   1.00
H182   H     0.28014   0.54339  -0.03111   0.00000  Uiso   1.00
H183   H     0.17137   0.53440   0.98499   0.00000  Uiso   1.00
C184   C     0.35106   0.52815   0.05114   0.00000  Uiso   1.00
C185   C     0.38441   0.50124   1.04644   0.00000  Uiso   1.00
C186   C     0.40526   0.46276   0.04429   0.00000  Uiso   1.00
C187   C     0.28639   0.49502   1.02222   0.00000  Uiso   1.00
C188   C     0.35106   0.49952   1.03648   0.00000  Uiso   1.00
C189   C     0.31911   0.52600   0.04370   0.00000  Uiso   1.00
C190   C     0.31844   0.46869   1.01460   0.00000  Uiso   1.00
C191   C     0.28647   0.46643   1.00777   0.00000  Uiso   1.00
C192   C     0.18562   0.45896   1.02032   0.00000  Uiso   1.00
C193   C     0.15307   0.48173  -0.02744   0.00000  Uiso   1.00
C194   C     0.13432   0.51242   0.90462   0.00000  Uiso   1.00
C195   C     0.25239   0.49250   0.01355   0.00000  Uiso   1.00
C196   C     0.66918   0.15488   0.92743   0.00000  Uiso   1.00
C197   C     0.71170   0.21760   0.91202   0.00000  Uiso   1.00
H198   H     0.81768   0.30338   0.11025   0.00000  Uiso   1.00
C199   C     0.72000   0.19151   0.00053   0.00000  Uiso   1.00
C200   C     0.68908   0.15864  -0.01784   0.00000  Uiso   1.00
N201   N     0.90167   0.36812   0.98074   0.00000  Uiso   1.00
N202   N     0.62180   0.08945  -0.05566   0.00000  Uiso   1.00
O203   O     0.88643   0.34794   0.08428   0.00000  Uiso   1.00
O204   O     0.62914   0.11607   0.84840   0.00000  Uiso   1.00
H205   H     0.94738   0.37448   0.02577   0.00000  Uiso   1.00
H206   H     0.94917   0.37733   0.93988   0.00000  Uiso   1.00
H207   H     0.75653   0.25068   0.08412   0.00000  Uiso   1.00
H208   H     0.84840   0.31693   0.91029   0.00000  Uiso   1.00
H209   H     0.78733   0.26531   0.88450   0.00000  Uiso   1.00
H210   H     0.89191   0.37284   0.94008   0.00000  Uiso   1.00
H211   H     0.66598   0.18343   0.85039   0.00000  Uiso   1.00
H212   H     0.61019   0.11228   1.01768   0.00000  Uiso   1.00
H213   H     0.62060   0.08333   0.04470   0.00000  Uiso   1.00
H214   H     0.72061   0.24054   0.88412   0.00000  Uiso   1.00
H215   H     0.68195   0.13611   0.00931   0.00000  Uiso   1.00
H216   H     0.73542   0.19308   0.04153   0.00000  Uiso   1.00
H217   H     0.61589   0.06659  -0.07545   0.00000  Uiso   1.00
C218   C     0.81123   0.29550   0.06071   0.00000  Uiso   1.00
C219   C     0.87619   0.34424   0.02906   0.00000  Uiso   1.00
C220   C     0.94104   0.38427  -0.01621   0.00000  Uiso   1.00
C221   C     0.76709   0.25418  -0.01789   0.00000  Uiso   1.00
C222   C     0.83793   0.31463   0.01237   0.00000  Uiso   1.00
C223   C     0.77624   0.26546   0.04579   0.00000  Uiso   1.00
C224   C     0.82842   0.30361   0.94866   0.00000  Uiso   1.00
C225   C     0.79336   0.27389   0.93371   0.00000  Uiso   1.00
C226   C     0.68056   0.18504   0.89279   0.00000  Uiso   1.00
C227   C     0.63882   0.11973   0.90398   0.00000  Uiso   1.00
C228   C     0.60633   0.08752   1.00720   0.00000  Uiso   1.00
C229   C     0.73170   0.22038   0.96611   0.00000  Uiso   1.00
C230   C     0.68760   0.53272   0.95474   0.00000  Uiso   1.00
C231   C     0.73518   0.52464   0.93623   0.00000  Uiso   1.00
H232   H     0.76927   0.46772   0.14377   0.00000  Uiso   1.00
C233   C     0.71509   0.52340   0.04426   0.00000  Uiso   1.00
C234   C     0.69000   0.52878   0.02082   0.00000  Uiso   1.00
N235   N     0.85308   0.48199   0.05207   0.00000  Uiso   1.00
N236   N     0.64942   0.55445   0.96371   0.00000  Uiso   1.00
O237   O     0.83478   0.48300   0.15169   0.00000  Uiso   1.00
O238   O     0.65275   0.53204   0.87209   0.00000  Uiso   1.00
H239   H     0.85759   0.45085   0.11934   0.00000  Uiso   1.00
H240   H     0.84531   0.43445   1.03977   0.00000  Uiso   1.00
H241   H     0.72784   0.48004   0.10421   0.00000  Uiso   1.00
H242   H     0.84784   0.53275   0.99488   0.00000  Uiso   1.00
H243   H     0.80704   0.54654   0.95667   0.00000  Uiso   1.00
H244   H     0.85411   0.48806   1.00366   0.00000  Uiso   1.00
H245   H     0.70935   0.53335   0.86168   0.00000  Uiso   1.00
H246   H     0.63126   0.56733   0.88190   0.00000  Uiso   1.00
H247   H     0.64765   0.59673  -0.05262   0.00000  Uiso   1.00
H248   H     0.75165   0.52231   0.90221   0.00000  Uiso   1.00
H249   H     0.67233   0.52934   0.05483   0.00000  Uiso   1.00
H250   H     0.71660   0.52111   0.09547   0.00000  Uiso   1.00
H251   H     0.65660   0.56037   0.01173   0.00000  Uiso   1.00
C252   C     0.77793   0.48522   0.10320   0.00000  Uiso   1.00
C253   C     0.83454   0.48834   0.09459   0.00000  Uiso   1.00
C254   C     0.86294   0.45872   0.06803   0.00000  Uiso   1.00
C255   C     0.76396   0.51437   0.02716   0.00000  Uiso   1.00
C256   C     0.81162   0.49899   0.07217   0.00000  Uiso   1.00
C257   C     0.75425   0.49248   0.08065   0.00000  Uiso   1.00
C258   C     0.82175   0.52121   1.01914   0.00000  Uiso   1.00
C259   C     0.79826   0.52899   0.99713   0.00000  Uiso   1.00
C260   C     0.71043   0.53042   0.91286   0.00000  Uiso   1.00
C261   C     0.66192   0.53935   0.92792   0.00000  Uiso   1.00
C262   C     0.63149   0.56865   0.93497   0.00000  Uiso   1.00
C263   C     0.73802   0.52121   1.00231   0.00000  Uiso   1.00
C264   C     0.15267   0.65628   0.05817   0.00000  Uiso   1.00
C265   C     0.21902   0.69266   0.04017   0.00000  Uiso   1.00
H266   H     0.28682   0.81421   0.87522   0.00000  Uiso   1.00
C267   C     0.18386   0.71283   1.00552   0.00000  Uiso   1.00
C268   C     0.15156   0.68201   1.02855   0.00000  Uiso   1.00
N269   N     0.36974   0.88089  -0.00181   0.00000  Uiso   1.00
N270   N     0.08292   0.61401   1.07430   0.00000  Uiso   1.00
O271   O     0.35363   0.86766   0.89283   0.00000  Uiso   1.00
O272   O     0.12302   0.60994   0.13132   0.00000  Uiso   1.00
H273   H     0.36547   0.91942   0.95939   0.00000  Uiso   1.00
H274   H     0.36502   0.91679   0.04523   0.00000  Uiso   1.00
H275   H     0.23194   0.75576   0.90195   0.00000  Uiso   1.00
H276   H     0.33637   0.81619   0.05314   0.00000  Uiso   1.00
H277   H     0.28161   0.75831   0.07940   0.00000  Uiso   1.00
H278   H     0.37598   0.87241   0.03836   0.00000  Uiso   1.00
H279   H     0.18851   0.64241   0.08525   0.00000  Uiso   1.00
H280   H     0.09114   0.61904  -0.02690   0.00000  Uiso   1.00
H281   H     0.05216   0.61633   1.00243   0.00000  Uiso   1.00
H282   H     0.24493   0.69642   0.04524   0.00000  Uiso   1.00
H283   H     0.12599   0.67898   1.02524   0.00000  Uiso   1.00
H284   H     0.18239   0.73275   0.98501   0.00000  Uiso   1.00
H285   H     0.06361   0.60340   1.11169   0.00000  Uiso   1.00
C286   C     0.28626   0.80217   0.91964   0.00000  Uiso   1.00
C287   C     0.34760   0.85699   0.94795   0.00000  Uiso   1.00
C288   C     0.37767   0.91529   1.00098   0.00000  Uiso   1.00
C289   C     0.25246   0.75269   0.99290   0.00000  Uiso   1.00
C290   C     0.31601   0.82030   0.96227   0.00000  Uiso   1.00
C291   C     0.25474   0.76883   0.93501   0.00000  Uiso   1.00
C292   C     0.31403   0.80361   0.01939   0.00000  Uiso   1.00
C293   C     0.28268   0.77012   0.03433   0.00000  Uiso   1.00
C294   C     0.18672   0.66177   0.06288   0.00000  Uiso   1.00
C295   C     0.11937   0.62531   0.08927   0.00000  Uiso   1.00
C296   C     0.06850   0.60623   0.00921   0.00000  Uiso   1.00
C297   C     0.21797   0.71867   0.01196   0.00000  Uiso   1.00
C298   C     0.50995   0.69554   0.06522   0.00000  Uiso   1.00
C299   C     0.51312   0.74633   0.09434   0.00000  Uiso   1.00
H300   H     0.46511   0.80277   0.91169   0.00000  Uiso   1.00
C301   C     0.50139   0.72745   0.98588   0.00000  Uiso   1.00
C302   C     0.50274   0.69985   1.00203   0.00000  Uiso   1.00
N303   N     0.54294   0.90498  -0.03229   0.00000  Uiso   1.00
N304   N     0.51002   0.64447   1.03412   0.00000  Uiso   1.00
O305   O     0.50445   0.86888   0.88831   0.00000  Uiso   1.00
O306   O     0.52507   0.66739   0.13487   0.00000  Uiso   1.00
H307   H     0.51749   0.88742   1.05980   0.00000  Uiso   1.00
H308   H     0.56448   0.92632   0.05838   0.00000  Uiso   1.00
H309   H     0.45993   0.75173   0.95022   0.00000  Uiso   1.00
H310   H     0.56156   0.86917   0.02810   0.00000  Uiso   1.00
H311   H     0.55642   0.81828   0.06619   0.00000  Uiso   1.00
H312   H     0.56040   0.92634  -0.06253   0.00000  Uiso   1.00
H313   H     0.51998   0.71656   0.16115   0.00000  Uiso   1.00
H314   H     0.56679   0.66580   0.03622   0.00000  Uiso   1.00
H315   H     0.54672   0.65734   0.95814   0.00000  Uiso   1.00
H316   H     0.51728   0.76441   0.13072   0.00000  Uiso   1.00
H317   H     0.49925   0.68267   0.96436   0.00000  Uiso   1.00
H318   H     0.49712   0.73061   0.93620   0.00000  Uiso   1.00
H319   H     0.48552   0.63035   1.00833   0.00000  Uiso   1.00
C320   C     0.48504   0.80647   0.94584   0.00000  Uiso   1.00
C321   C     0.51907   0.87131   0.93892   0.00000  Uiso   1.00
C322   C     0.53768   0.91206   0.03327   0.00000  Uiso   1.00
C323   C     0.50785   0.78102   1.01105   0.00000  Uiso   1.00
C324   C     0.51376   0.84007   0.96696   0.00000  Uiso   1.00
C325   C     0.48212   0.77726   0.96768   0.00000  Uiso   1.00
C326   C     0.53883   0.84367   0.01163   0.00000  Uiso   1.00
C327   C     0.53588   0.81449   0.03350   0.00000  Uiso   1.00
C328   C     0.51456   0.71895   0.11179   0.00000  Uiso   1.00
C329   C     0.51506   0.66849   0.08150   0.00000  Uiso   1.00
C330   C     0.54158   0.64722   0.00805   0.00000  Uiso   1.00
C331   C     0.50681   0.75054   0.03030   0.00000  Uiso   1.00
C332   C     0.49235   0.18139   0.94866   0.00000  Uiso   1.00
C333   C     0.49755   0.23404   0.92566   0.00000  Uiso   1.00
H334   H     0.56241   0.34640   0.10863   0.00000  Uiso   1.00
C335   C     0.51062   0.22427   0.03210   0.00000  Uiso   1.00
C336   C     0.50319   0.19280   0.01202   0.00000  Uiso   1.00
N337   N     0.49366   0.37253   1.05630   0.00000  Uiso   1.00
N338   N     0.46416   0.11870   0.96900   0.00000  Uiso   1.00
O339   O     0.53342   0.37800   0.13098   0.00000  Uiso   1.00
O340   O     0.48398   0.14238   0.87085   0.00000  Uiso   1.00
H341   H     0.52075   0.38593  -0.03438   0.00000  Uiso   1.00
H342   H     0.47168   0.36377   0.96380   0.00000  Uiso   1.00
H343   H     0.55869   0.29619   0.06992   0.00000  Uiso   1.00
H344   H     0.46477   0.31176   1.00190   0.00000  Uiso   1.00
H345   H     0.46141   0.26217   0.96314   0.00000  Uiso   1.00
H346   H     0.47696   0.37466   1.08731   0.00000  Uiso   1.00
H347   H     0.48214   0.19481   0.85636   0.00000  Uiso   1.00
H348   H     0.43349   0.08075   0.89596   0.00000  Uiso   1.00
H349   H     0.41404   0.06838  -0.02539   0.00000  Uiso   1.00
H350   H     0.49491   0.24951   0.89163   0.00000  Uiso   1.00
H351   H     0.50561   0.17742   0.04655   0.00000  Uiso   1.00
H352   H     0.51780   0.23194   0.08160   0.00000  Uiso   1.00
H353   H     0.46304   0.12253   0.01781   0.00000  Uiso   1.00
C354   C     0.54049   0.32839   0.07627   0.00000  Uiso   1.00
C355   C     0.51538   0.36290   0.08335   0.00000  Uiso   1.00
C356   C     0.49741   0.38362  -0.01055   0.00000  Uiso   1.00
C357   C     0.51022   0.27574   0.01235   0.00000  Uiso   1.00
C358   C     0.51441   0.33361   0.05713   0.00000  Uiso   1.00
C359   C     0.53834   0.29966   0.05428   0.00000  Uiso   1.00
C360   C     0.48610   0.30938   1.01582   0.00000  Uiso   1.00
C361   C     0.48410   0.28086   0.99364   0.00000  Uiso   1.00
C362   C     0.49052   0.20284   0.90541   0.00000  Uiso   1.00
C363   C     0.48062   0.14655   0.92727   0.00000  Uiso   1.00
C364   C     0.44044   0.08243   0.94746   0.00000  Uiso   1.00
C365   C     0.50694   0.24473   0.98950   0.00000  Uiso   1.00
loop_
_geom_bond_atom_site_label_1
_geom_bond_atom_site_label_2
_geom_bond_distance
_geom_bond_site_symmetry_2
_ccdc_geom_bond_type
Y0     O2      2.249   .     S
Y0     O6      2.263   .     S
Y0     O9      2.247   .     S
Y0     O10     2.279   .     S
Y0     O11     2.270   .     S
Y0     O3      2.269   1_554 S
Y0     O7      2.255   1_554 S
Y1     O3      2.252   .     S
Y1     O5      2.277   .     S
Y1     O8      2.280   .     S
Y1     O13     2.255   .     S
Y1     O15     2.268   .     S
Y1     O9      2.258   1_556 S
Y1     O16     2.255   1_556 S
O2     C12     1.283   1_554 A
O3     C14     1.376   .     S
O3     Y0      2.269   1_556 S
C4     O15     1.262   .     A
C4     O16     1.260   1_556 A
C4     C356    1.502   1_556 S
O5     C14     1.215   .     D
O6     C17     1.261   .     A
O7     Y0      2.255   1_556 S
O7     C17     1.260   1_556 A
O8     C12     1.287   .     A
O9     C19     1.372   .     S
O9     Y1      2.258   1_554 S
O10    C19     1.215   .     D
O11    C18     1.286   .     A
C12    C262    1.499   .     S
C12    O2      1.283   1_556 A
O13    C18     1.284   1_556 A
C14    C92     1.498   .     S
O16    Y1      2.255   1_554 S
O16    C4      1.260   1_554 A
C17    C330    1.494   .     S
C17    O7      1.260   1_554 A
C18    C186    1.497   .     S
C18    O13     1.284   1_554 A
C19    C84     1.496   .     S
Y20    O26     2.253   .     S
Y20    O30     2.269   .     S
Y20    O31     2.275   .     S
Y20    O22     2.255   1_655 S
Y20    O23     2.262   1_554 S
Y20    O27     2.267   1_554 S
Y20    O29     2.253   1_655 S
Y21    O25     2.270   .     S
Y21    O28     2.273   .     S
Y21    O35     2.252   .     S
Y21    O23     2.255   1_455 S
Y21    O29     2.266   1_556 S
Y21    O33     2.242   1_455 S
Y21    O36     2.260   1_556 S
O22    Y20     2.255   1_455 S
O22    C32     1.286   1_554 A
O23    Y20     2.262   1_556 S
O23    Y21     2.255   1_655 S
O23    C34     1.375   1_655 S
C24    O35     1.260   .     A
C24    C194    1.495   .     S
C24    O36     1.263   1_556 A
O25    C34     1.213   .     D
O26    C37     1.260   .     A
O27    Y20     2.267   1_556 S
O27    C37     1.262   1_556 A
O28    C32     1.286   .     A
O29    C39     1.376   .     S
O29    Y20     2.253   1_455 S
O29    Y21     2.266   1_554 S
O30    C39     1.215   1_655 D
O31    C38     1.285   .     A
C32    O22     1.286   1_556 A
C32    C296    1.497   1_556 S
O33    Y21     2.242   1_655 S
O33    C38     1.281   1_556 A
C34    O23     1.375   1_455 S
C34    C118    1.494   1_455 S
O36    Y21     2.260   1_554 S
O36    C24     1.263   1_554 A
C37    C254    1.496   .     S
C37    O27     1.262   1_554 A
C38    C220    1.495   .     S
C38    O33     1.281   1_554 A
C39    C126    1.496   .     S
C39    O30     1.215   1_455 D
Y40    O46     2.256   .     S
Y40    O50     2.273   .     S
Y40    O51     2.247   .     S
Y40    O42     2.269   1_545 S
Y40    O43     2.264   1_556 S
Y40    O47     2.265   1_556 S
Y40    O49     2.248   1_545 S
Y41    O45     2.275   .     S
Y41    O48     2.249   .     S
Y41    O55     2.271   .     S
Y41    O43     2.249   1_565 S
Y41    O49     2.252   1_554 S
Y41    O53     2.277   1_565 S
Y41    O56     2.247   1_554 S
O42    Y40     2.269   1_565 S
O42    C52     1.284   1_556 A
O43    C54     1.373   .     S
O43    Y40     2.264   1_554 S
O43    Y41     2.249   1_545 S
C44    O55     1.263   .     A
C44    C322    1.500   .     S
C44    O56     1.259   1_554 A
O45    C54     1.216   1_565 D
O46    C57     1.260   .     A
O47    Y40     2.265   1_554 S
O47    C57     1.262   1_554 A
O48    C52     1.283   .     A
O49    Y40     2.248   1_565 S
O49    Y41     2.252   1_556 S
O49    C59     1.373   1_565 S
O50    C59     1.214   .     D
O51    C58     1.284   .     A
C52    O42     1.284   1_554 A
C52    C288    1.497   1_554 S
O53    Y41     2.277   1_545 S
O53    C58     1.287   1_554 A
C54    C152    1.492   .     S
C54    O45     1.216   1_545 D
O56    Y41     2.247   1_556 S
O56    C44     1.259   1_556 A
C57    C364    1.496   .     S
C57    O47     1.262   1_556 A
C58    C228    1.493   .     S
C58    O53     1.287   1_556 A
C59    C160    1.493   .     S
C59    O49     1.373   1_545 S
C60    C64     1.408   .     A
C60    C90     1.408   .     A
C60    C91     1.492   .     S
C61    H78     1.083   .     S
C61    C90     1.399   .     A
C61    C93     1.405   .     A
H62    C82     1.083   .     S
C63    C64     1.401   .     A
C63    H80     1.083   .     S
C63    C93     1.406   .     A
C64    H79     1.081   .     S
N65    H74     1.044   .     S
N65    C83     1.375   .     S
N65    C84     1.467   .     S
N66    H81     1.044   .     S
N66    C91     1.377   .     S
N66    C92     1.468   .     S
O67    C83     1.221   .     D
O68    C91     1.221   .     D
H69    C84     1.110   .     S
H70    C84     1.110   .     S
H71    C87     1.083   .     S
H72    C88     1.081   .     S
H73    C89     1.083   .     S
H75    C90     1.083   .     S
H76    C92     1.111   .     S
H77    C92     1.112   .     S
C82    C86     1.407   .     A
C82    C87     1.399   .     A
C83    C86     1.490   .     S
C85    C87     1.405   .     A
C85    C89     1.406   .     A
C85    C93     1.489   .     S
C86    C88     1.408   .     A
C88    C89     1.399   .     A
C94    C98     1.406   .     A
C94    C124    1.406   .     A
C94    C125    1.484   .     S
C95    H112    1.083   .     S
C95    C124    1.398   .     A
C95    C127    1.405   1_655 A
H96    C116    1.083   .     S
C97    H114    1.083   .     S
C97    C127    1.405   .     A
C97    C98     1.397   1_455 A
C98    C97     1.397   1_655 A
C98    H113    1.082   1_655 S
N99    H108    1.044   .     S
N99    C118    1.462   .     S
N99    C117    1.438   1_655 S
N100   H115    1.044   .     S
N100   C126    1.463   .     S
N100   C125    1.438   1_455 S
O101   C117    1.220   .     D
O102   C125    1.220   .     D
H103   C118    1.110   1_455 S
H104   C118    1.111   .     S
H105   C121    1.083   .     S
H106   C122    1.081   .     S
H107   C123    1.083   .     S
H109   C124    1.083   .     S
H110   C126    1.111   .     S
H111   C126    1.109   .     S
H113   C98     1.082   1_455 S
C116   C120    1.406   .     A
C116   C121    1.397   .     A
C117   C120    1.485   .     S
C117   N99     1.438   1_455 S
C118   H103    1.110   1_655 S
C118   C34     1.494   1_655 S
C119   C121    1.405   .     A
C119   C123    1.405   .     A
C119   C127    1.486   .     S
C120   C122    1.406   .     A
C122   C123    1.398   .     A
C125   N100    1.438   1_655 S
C127   C95     1.405   1_455 A
C128   C158    1.405   .     A
C128   C159    1.479   .     S
C128   C132    1.405   1_545 A
C129   H146    1.083   .     S
C129   C158    1.396   .     A
C129   C161    1.404   .     A
H130   C150    1.083   .     S
C131   C132    1.394   .     A
C131   H148    1.083   .     S
C131   C161    1.403   1_565 A
C132   H147    1.081   .     S
C132   C128    1.405   1_565 A
N133   H142    1.044   .     S
N133   C152    1.460   .     S
N133   C151    1.437   1_545 S
N134   C159    1.373   .     S
N134   C160    1.459   .     S
N134   H149    1.044   1_545 S
O135   C151    1.220   .     D
O136   C159    1.221   .     D
H137   C152    1.111   1_565 S
H138   C152    1.111   .     S
H139   C155    1.083   .     S
H140   C156    1.081   .     S
H141   C157    1.083   .     S
H143   C158    1.083   .     S
H144   C160    1.111   .     S
H145   C160    1.110   1_565 S
H149   N134    1.044   1_565 S
C150   C154    1.406   .     A
C150   C155    1.396   .     A
C151   C154    1.482   .     S
C151   N133    1.437   1_565 S
C152   H137    1.111   1_545 S
C153   C155    1.404   .     A
C153   C157    1.402   1_565 A
C153   C161    1.478   1_565 S
C154   C156    1.407   1_565 A
C156   C157    1.395   .     A
C156   C154    1.407   1_545 A
C157   C153    1.402   1_545 A
C160   H145    1.110   1_545 S
C161   C131    1.403   1_545 A
C161   C153    1.478   1_545 S
C162   C166    1.405   .     A
C162   C193    1.483   .     S
C162   C192    1.406   1_554 A
C163   H180    1.083   .     S
C163   C192    1.399   .     A
C163   C195    1.406   1_556 A
H164   C184    1.083   .     S
C165   C166    1.398   .     A
C165   H182    1.083   .     S
C165   C195    1.405   .     A
C166   H181    1.082   .     S
N167   H176    1.045   .     S
N167   C186    1.461   .     S
N167   C185    1.435   1_554 S
N168   H183    1.045   .     S
N168   C194    1.461   .     S
N168   C193    1.434   1_556 S
O169   C185    1.220   .     D
O170   C193    1.220   .     D
H171   C186    1.111   .     S
H172   C186    1.112   .     S
H173   C189    1.083   .     S
H174   C190    1.082   .     S
H175   C191    1.082   .     S
H177   C192    1.083   .     S
H178   C194    1.113   .     S
H179   C194    1.111   .     S
C184   C189    1.400   .     A
C184   C188    1.406   1_554 A
C185   C188    1.481   .     S
C185   N167    1.435   1_556 S
C187   C191    1.405   .     A
C187   C189    1.407   1_556 A
C187   C195    1.486   1_556 S
C188   C190    1.404   .     A
C188   C184    1.406   1_556 A
C189   C187    1.407   1_554 A
C190   C191    1.397   .     A
C192   C162    1.406   1_556 A
C193   N168    1.434   1_554 S
C195   C163    1.406   1_554 A
C195   C187    1.486   1_554 S
C196   C226    1.405   .     A
C196   C227    1.485   .     S
C196   C200    1.404   1_556 A
C197   H214    1.083   .     S
C197   C226    1.399   .     A
C197   C229    1.409   .     A
H198   C218    1.083   .     S
C199   C200    1.399   .     A
C199   H216    1.083   .     S
C199   C229    1.350   1_554 D
C200   H215    1.080   .     S
C200   C196    1.404   1_554 A
N201   H210    1.045   .     S
N201   C219    1.435   1_556 S
N201   C220    1.462   1_556 S
N202   H217    1.046   .     S
N202   C227    1.433   1_554 S
N202   C228    1.462   1_554 S
O203   C219    1.219   .     D
O204   C227    1.219   .     D
H205   C220    1.111   .     S
H206   C220    1.111   1_556 S
H207   C223    1.083   .     S
H208   C224    1.081   .     S
H209   C225    1.082   .     S
H211   C226    1.083   .     S
H212   C228    1.113   .     S
H213   C228    1.110   1_554 S
C218   C222    1.407   .     A
C218   C223    1.399   .     A
C219   C222    1.485   .     S
C219   N201    1.435   1_554 S
C220   N201    1.462   1_554 S
C220   H206    1.111   1_554 S
C221   C223    1.406   .     A
C221   C225    1.403   1_554 A
C221   C229    1.484   1_554 S
C222   C224    1.405   1_554 A
C224   C225    1.396   .     A
C224   C222    1.405   1_556 A
C225   C221    1.403   1_556 A
C227   N202    1.433   1_556 S
C228   N202    1.462   1_556 S
C228   H213    1.110   1_556 S
C229   C199    1.350   1_556 D
C229   C221    1.484   1_556 S
C230   C260    1.407   .     A
C230   C261    1.490   .     S
C230   C234    1.407   1_556 A
C231   H248    1.082   .     S
C231   C260    1.397   .     A
C231   C263    1.406   .     A
H232   C252    1.083   .     S
C233   C234    1.400   .     A
C233   H250    1.082   .     S
C233   C263    1.408   1_554 A
C234   H249    1.081   .     S
C234   C230    1.407   1_554 A
N235   C253    1.375   .     S
N235   C254    1.466   .     S
N235   H244    1.045   1_554 S
N236   C261    1.377   .     S
N236   C262    1.467   .     S
N236   H251    1.043   1_556 S
O237   C253    1.221   .     D
O238   C261    1.220   .     D
H239   C254    1.112   .     S
H240   C254    1.111   1_556 S
H241   C257    1.082   .     S
H242   C258    1.082   .     S
H243   C259    1.082   .     S
H244   N235    1.045   1_556 S
H245   C260    1.083   .     S
H246   C262    1.111   .     S
H247   C262    1.112   1_554 S
H251   N236    1.043   1_554 S
C252   C256    1.404   .     A
C252   C257    1.396   .     A
C253   C256    1.483   .     S
C254   H240    1.111   1_554 S
C255   C257    1.406   .     A
C255   C259    1.410   1_554 A
C255   C263    1.493   1_554 S
C256   C258    1.405   1_554 A
C258   C259    1.402   .     A
C258   C256    1.405   1_556 A
C259   C255    1.410   1_556 A
C262   H247    1.112   1_556 S
C263   C233    1.408   1_556 A
C263   C255    1.493   1_556 S
C264   C294    1.407   .     A
C264   C295    1.484   .     S
C264   C268    1.405   1_554 A
C265   H282    1.083   .     S
C265   C294    1.397   .     A
C265   C297    1.403   .     A
H266   C286    1.083   .     S
C267   C268    1.398   .     A
C267   H284    1.083   .     S
C267   C297    1.405   1_556 A
C268   H283    1.082   .     S
C268   C264    1.405   1_556 A
N269   H278    1.043   .     S
N269   C287    1.436   1_554 S
N269   C288    1.463   1_554 S
N270   H285    1.046   .     S
N270   C295    1.435   1_556 S
N270   C296    1.462   1_556 S
O271   C287    1.220   .     D
O272   C295    1.219   .     D
H273   C288    1.112   .     S
H274   C288    1.111   1_554 S
H275   C291    1.083   .     S
H276   C292    1.080   .     S
H277   C293    1.083   .     S
H279   C294    1.083   .     S
H280   C296    1.111   .     S
H281   C296    1.111   1_556 S
C286   C290    1.408   .     A
C286   C291    1.398   .     A
C287   C290    1.485   .     S
C287   N269    1.436   1_556 S
C288   N269    1.463   1_556 S
C288   H274    1.111   1_556 S
C288   C52     1.497   1_556 S
C289   C291    1.403   .     A
C289   C293    1.404   1_556 A
C289   C297    1.482   1_556 S
C290   C292    1.407   1_556 A
C292   C293    1.397   .     A
C292   C290    1.407   1_554 A
C293   C289    1.404   1_554 A
C295   N270    1.435   1_554 S
C296   N270    1.462   1_554 S
C296   H281    1.111   1_554 S
C296   C32     1.497   1_554 S
C297   C267    1.405   1_554 A
C297   C289    1.482   1_554 S
C298   C328    1.405   .     A
C298   C329    1.485   .     S
C298   C302    1.406   1_554 A
C299   H316    1.083   .     S
C299   C328    1.399   .     A
C299   C331    1.409   .     A
H300   C320    1.083   .     S
C301   C302    1.400   .     A
C301   H318    1.084   .     S
C301   C331    1.352   1_556 D
C302   H317    1.082   .     S
C302   C298    1.406   1_556 A
N303   H312    1.046   .     S
N303   C322    1.464   .     S
N303   C321    1.434   1_554 S
N304   H319    1.045   .     S
N304   C329    1.432   1_556 S
N304   C330    1.459   1_556 S
O305   C321    1.219   .     D
O306   C329    1.219   .     D
H307   C322    1.111   1_556 S
H308   C322    1.111   .     S
H309   C325    1.083   .     S
H310   C326    1.082   .     S
H311   C327    1.083   .     S
H313   C328    1.083   .     S
H314   C330    1.112   .     S
H315   C330    1.112   1_556 S
C320   C324    1.407   .     A
C320   C325    1.398   .     A
C321   C324    1.484   .     S
C321   N303    1.434   1_556 S
C322   H307    1.111   1_554 S
C323   C325    1.406   .     A
C323   C327    1.405   1_556 A
C323   C331    1.486   1_556 S
C324   C326    1.404   1_556 A
C326   C327    1.397   .     A
C326   C324    1.404   1_554 A
C327   C323    1.405   1_554 A
C329   N304    1.432   1_554 S
C330   N304    1.459   1_554 S
C330   H315    1.112   1_554 S
C331   C301    1.352   1_554 D
C331   C323    1.486   1_554 S
C332   C362    1.406   .     A
C332   C363    1.487   .     S
C332   C336    1.408   1_556 A
C333   H350    1.083   .     S
C333   C362    1.395   .     A
C333   C365    1.404   .     A
H334   C354    1.083   .     S
C335   C336    1.400   .     A
C335   H352    1.083   .     S
C335   C365    1.404   1_554 A
C336   H351    1.081   .     S
C336   C332    1.408   1_554 A
N337   H346    1.045   .     S
N337   C355    1.433   1_556 S
N337   C356    1.465   1_556 S
N338   C363    1.375   .     S
N338   C364    1.465   .     S
N338   H353    1.043   1_556 S
O339   C355    1.219   .     D
O340   C363    1.220   .     D
H341   C356    1.112   .     S
H342   C356    1.111   1_556 S
H343   C359    1.083   .     S
H344   C360    1.081   .     S
H345   C361    1.083   .     S
H347   C362    1.083   .     S
H348   C364    1.112   .     S
H349   C364    1.111   1_554 S
H353   N338    1.043   1_554 S
C354   C358    1.407   .     A
C354   C359    1.399   .     A
C355   C358    1.483   .     S
C355   N337    1.433   1_554 S
C356   N337    1.465   1_554 S
C356   H342    1.111   1_554 S
C356   C4      1.502   1_554 S
C357   C359    1.405   .     A
C357   C361    1.404   1_554 A
C357   C365    1.482   1_554 S
C358   C360    1.404   1_554 A
C360   C361    1.394   .     A
C360   C358    1.404   1_556 A
C361   C357    1.404   1_556 A
C364   H349    1.111   1_556 S
C365   C335    1.404   1_556 A
C365   C357    1.482   1_556 S
