data_kag+N144+E161
_audit_creation_date              2025-01-21
_audit_creation_method            'Materials Studio'
_symmetry_space_group_name_H-M    'P1'
_symmetry_Int_Tables_number       1
_symmetry_cell_setting            triclinic
loop_
_symmetry_equiv_pos_as_xyz
  x,y,z
_cell_length_a                    49.2208
_cell_length_b                    49.0811
_cell_length_c                    24.0587
_cell_angle_alpha                 89.3874
_cell_angle_beta                  88.5468
_cell_angle_gamma                 120.8788
loop_
_atom_site_label
_atom_site_type_symbol
_atom_site_fract_x
_atom_site_fract_y
_atom_site_fract_z
_atom_site_U_iso_or_equiv
_atom_site_adp_type
_atom_site_occupancy
C0     C     0.63414   0.56250   1.03884   0.00000  Uiso   1.00
Er1    Er    0.51743   0.53225   0.01915   0.00000  Uiso   1.00
Er2    Er    0.57059   0.55553   0.01266   0.00000  Uiso   1.00
C3     C     0.55060   0.60409   0.01245   0.00000  Uiso   1.00
O4     O     0.56788   0.55366   0.92280   0.00000  Uiso   1.00
C5     C     0.54771   0.54557   0.13236   0.00000  Uiso   1.00
C6     C     0.53686   0.48333   0.01435   0.00000  Uiso   1.00
C7     C     0.45968   0.50905   0.98360   0.00000  Uiso   1.00
O8     O     0.61834   0.54797   1.08021   0.00000  Uiso   1.00
O9     O     0.62275   0.57614   1.00204   0.00000  Uiso   1.00
O10    O     0.56425   0.50820   0.01481   0.00000  Uiso   1.00
O11    O     0.51244   0.48588   0.01652   0.00000  Uiso   1.00
O12    O     0.57311   0.55841   0.10273   0.00000  Uiso   1.00
O13    O     0.52140   0.53233   0.10874   0.00000  Uiso   1.00
C14    C     0.54173   0.54336   0.89901   0.00000  Uiso   1.00
O15    O     0.51615   0.53294   0.92839   0.00000  Uiso   1.00
O16    O     0.57533   0.60203   0.00893   0.00000  Uiso   1.00
O17    O     0.52340   0.57924   0.01974   0.00000  Uiso   1.00
O18    O     0.48397   0.52038   0.95099   0.00000  Uiso   1.00
O19    O     0.46669   0.50986   1.03361   0.00000  Uiso   1.00
C20    C     0.97712   0.41643   0.97476   0.00000  Uiso   1.00
Er21   Er    0.05067   0.53701   0.02430   0.00000  Uiso   1.00
Er22   Er    1.01795   0.48426   0.02224   0.00000  Uiso   1.00
C23    C     0.08590   0.50092   0.02246   0.00000  Uiso   1.00
O24    O     0.02237   0.48764   0.93225   0.00000  Uiso   1.00
C25    C     0.02847   0.50578   0.14010   0.00000  Uiso   1.00
C26    C     0.98319   0.52063   0.01911   0.00000  Uiso   1.00
C27    C     0.09035   0.59560   0.98755   0.00000  Uiso   1.00
O28    O     0.99809   0.42463   0.93917   0.00000  Uiso   1.00
O29    O     0.98307   0.43241   1.02453   0.00000  Uiso   1.00
O30    O     0.97883   0.49276   0.01736   0.00000  Uiso   1.00
O31    O     0.01089   0.54437   0.02452   0.00000  Uiso   1.00
O32    O     0.01311   0.48088   0.11239   0.00000  Uiso   1.00
O33    O     0.04635   0.53199   0.11444   0.00000  Uiso   1.00
C34    C     0.03816   0.51417   0.90601   0.00000  Uiso   1.00
O35    O     0.05296   0.53976   0.93314   0.00000  Uiso   1.00
O36    O     0.05789   0.47687   0.02505   0.00000  Uiso   1.00
O37    O     0.09002   0.52873   0.02259   0.00000  Uiso   1.00
O38    O     0.08370   0.58683   1.03764   0.00000  Uiso   1.00
O39    O     0.07454   0.57284   0.95531   0.00000  Uiso   1.00
C40    C     0.47653   0.08274   0.98312   0.00000  Uiso   1.00
Er41   Er    0.51565   1.00457   0.03475   0.00000  Uiso   1.00
Er42   Er    0.50099   0.04076   0.03097   0.00000  Uiso   1.00
C43    C     0.44444   0.97437   0.02913   0.00000  Uiso   1.00
O44    O     0.50587   0.04226   0.94112   0.00000  Uiso   1.00
C45    C     0.50428   0.02357   0.14937   0.00000  Uiso   1.00
C46    C     0.57234   0.07123   0.03236   0.00000  Uiso   1.00
C47    C     0.53109   0.96377   0.99748   0.00000  Uiso   1.00
O48    O     0.46045   0.06046   0.95359   0.00000  Uiso   1.00
O49    O     0.48899   0.07844   1.03132   0.00000  Uiso   1.00
O50    O     0.55039   0.07764   0.03463   0.00000  Uiso   1.00
O51    O     0.56520   0.04236   0.03187   0.00000  Uiso   1.00
O52    O     0.49636   0.04002   0.12080   0.00000  Uiso   1.00
O53    O     0.51365   0.00703   0.12472   0.00000  Uiso   1.00
C54    C     0.51187   0.02330   0.91563   0.00000  Uiso   1.00
O55    O     0.51671   0.00391   0.94351   0.00000  Uiso   1.00
O56    O     0.45181   0.00328   0.02575   0.00000  Uiso   1.00
O57    O     0.46590   0.96764   0.03638   0.00000  Uiso   1.00
O58    O     0.52483   0.98046   0.96555   0.00000  Uiso   1.00
O59    O     0.52922   0.96945   1.04770   0.00000  Uiso   1.00
H60    H     0.59121   0.57661   0.82615   0.00000  Uiso   1.00
C61    C     0.54823   0.54581   0.19380   0.00000  Uiso   1.00
C62    C     0.52030   0.52598   0.22535   0.00000  Uiso   1.00
C63    C     0.52003   0.52598   0.28358   0.00000  Uiso   1.00
C64    C     0.54809   0.54645   0.31098   0.00000  Uiso   1.00
C65    C     0.57628   0.56655   0.27962   0.00000  Uiso   1.00
C66    C     0.57617   0.56593   0.22125   0.00000  Uiso   1.00
C67    C     0.48985   0.50410   0.31629   0.00000  Uiso   1.00
C68    C     0.60634   0.58859   0.30833   0.00000  Uiso   1.00
C69    C     0.55266   0.52551   0.39971   0.00000  Uiso   1.00
C70    C     0.55091   0.52426   0.45814   0.00000  Uiso   1.00
C71    C     0.54450   0.54542   0.48650   0.00000  Uiso   1.00
C72    C     0.53995   0.56740   0.45621   0.00000  Uiso   1.00
C73    C     0.54167   0.56760   0.39780   0.00000  Uiso   1.00
C74    C     0.55521   0.50229   0.48876   0.00000  Uiso   1.00
C75    C     0.55321   0.50137   0.54683   0.00000  Uiso   1.00
C76    C     0.54703   0.52251   0.57555   0.00000  Uiso   1.00
C77    C     0.54262   0.54459   0.54528   0.00000  Uiso   1.00
C78    C     0.53642   0.56590   0.57368   0.00000  Uiso   1.00
C79    C     0.53190   0.58771   0.54306   0.00000  Uiso   1.00
C80    C     0.53363   0.58844   0.48496   0.00000  Uiso   1.00
C81    C     0.54538   0.52234   0.63392   0.00000  Uiso   1.00
C82    C     0.53515   0.56495   0.63212   0.00000  Uiso   1.00
C83    C     0.53993   0.54395   0.72067   0.00000  Uiso   1.00
C84    C     0.48020   0.50459   0.72646   0.00000  Uiso   1.00
C85    C     0.51241   0.52543   0.81087   0.00000  Uiso   1.00
C86    C     0.59903   0.58351   0.71420   0.00000  Uiso   1.00
C87    C     0.56906   0.56220   0.80571   0.00000  Uiso   1.00
C88    C     0.56872   0.56274   0.74750   0.00000  Uiso   1.00
C89    C     0.51158   0.52520   0.75269   0.00000  Uiso   1.00
C90    C     0.54104   0.54361   0.83770   0.00000  Uiso   1.00
H91    H     0.59679   0.60137   0.68924   0.00000  Uiso   1.00
N92    N     0.54782   0.54677   0.37086   0.00000  Uiso   1.00
N93    N     0.53985   0.54356   0.66088   0.00000  Uiso   1.00
H94    H     0.60405   0.56881   0.68585   0.00000  Uiso   1.00
H95    H     0.49864   0.51023   0.20455   0.00000  Uiso   1.00
H96    H     0.59778   0.58141   0.19717   0.00000  Uiso   1.00
H97    H     0.46982   0.49008   0.28868   0.00000  Uiso   1.00
H98    H     0.49315   0.48723   0.34219   0.00000  Uiso   1.00
H99    H     0.48342   0.51813   0.34370   0.00000  Uiso   1.00
H100   H     0.61297   0.57458   0.33532   0.00000  Uiso   1.00
H101   H     0.62628   0.60295   0.27805   0.00000  Uiso   1.00
H102   H     0.60276   0.60513   0.33431   0.00000  Uiso   1.00
O103   O     0.53685   0.58854   0.36756   0.00000  Uiso   1.00
O104   O     0.55890   0.50508   0.37137   0.00000  Uiso   1.00
H105   H     0.56006   0.48569   0.46799   0.00000  Uiso   1.00
H106   H     0.53001   0.60555   0.46270   0.00000  Uiso   1.00
H107   H     0.55663   0.48413   0.56911   0.00000  Uiso   1.00
H108   H     0.46318   0.51174   0.74080   0.00000  Uiso   1.00
H109   H     0.48192   0.50633   0.68040   0.00000  Uiso   1.00
H110   H     0.49062   0.51098   0.83521   0.00000  Uiso   1.00
H111   H     0.52706   0.60431   0.56387   0.00000  Uiso   1.00
H112   H     0.61953   0.59640   0.74139   0.00000  Uiso   1.00
O113   O     0.52949   0.58575   0.66057   0.00000  Uiso   1.00
O114   O     0.54973   0.50107   0.66413   0.00000  Uiso   1.00
H115   H     0.47071   0.47940   0.73921   0.00000  Uiso   1.00
H116   H     0.04616   0.55535   0.20748   0.00000  Uiso   1.00
C117   C     0.03872   0.51482   0.84441   0.00000  Uiso   1.00
C118   C     0.02651   0.48628   0.81585   0.00000  Uiso   1.00
C119   C     0.02556   0.48599   0.75771   0.00000  Uiso   1.00
C120   C     0.03676   0.51472   0.72727   0.00000  Uiso   1.00
C121   C     0.04931   0.54359   0.75555   0.00000  Uiso   1.00
C122   C     0.05032   0.54343   0.81391   0.00000  Uiso   1.00
C123   C     0.01256   0.45503   0.72831   0.00000  Uiso   1.00
C124   C     0.06128   0.57443   0.72369   0.00000  Uiso   1.00
C125   C     0.00800   0.50907   0.64350   0.00000  Uiso   1.00
C126   C     0.00531   0.50690   0.58545   0.00000  Uiso   1.00
C127   C     0.03105   0.51051   0.55241   0.00000  Uiso   1.00
C128   C     0.05902   0.51641   0.57770   0.00000  Uiso   1.00
C129   C     0.06056   0.51827   0.63590   0.00000  Uiso   1.00
C130   C     0.97753   0.50100   0.55975   0.00000  Uiso   1.00
C131   C     0.97534   0.49872   0.50198   0.00000  Uiso   1.00
C132   C     0.00088   0.50230   0.46860   0.00000  Uiso   1.00
C133   C     0.02883   0.50818   0.49395   0.00000  Uiso   1.00
C134   C     0.05457   0.51177   0.46097   0.00000  Uiso   1.00
C135   C     0.08237   0.51774   0.48663   0.00000  Uiso   1.00
C136   C     0.08458   0.52005   0.54434   0.00000  Uiso   1.00
C137   C    -0.00063   0.50039   0.41034   0.00000  Uiso   1.00
C138   C     0.05190   0.50951   0.40297   0.00000  Uiso   1.00
C139   C     0.02350   0.50391   0.31904   0.00000  Uiso   1.00
C140   C    -0.00128   0.44364   0.32035   0.00000  Uiso   1.00
C141   C     0.01306   0.47593   0.23187   0.00000  Uiso   1.00
C142   C     0.04693   0.56349   0.31846   0.00000  Uiso   1.00
C143   C     0.03666   0.53301   0.23046   0.00000  Uiso   1.00
C144   C     0.03540   0.53282   0.28872   0.00000  Uiso   1.00
C145   C     0.01194   0.47523   0.29030   0.00000  Uiso   1.00
C146   C     0.02586   0.50475   0.20162   0.00000  Uiso   1.00
H147   H     0.06694   0.56813   0.34491   0.00000  Uiso   1.00
N148   N     0.03522   0.51441   0.66750   0.00000  Uiso   1.00
N149   N     0.02473   0.50420   0.37885   0.00000  Uiso   1.00
H150   H     0.02737   0.56190   0.34507   0.00000  Uiso   1.00
H151   H     0.01762   0.46406   0.83892   0.00000  Uiso   1.00
H152   H     0.05969   0.56555   0.83559   0.00000  Uiso   1.00
H153   H     0.00504   0.43472   0.75799   0.00000  Uiso   1.00
H154   H    -0.00832   0.45047   0.70449   0.00000  Uiso   1.00
H155   H     0.03099   0.45612   0.69926   0.00000  Uiso   1.00
H156   H     0.04184   0.57336   0.69957   0.00000  Uiso   1.00
H157   H     0.07012   0.59486   0.75180   0.00000  Uiso   1.00
H158   H     0.08101   0.57866   0.69459   0.00000  Uiso   1.00
O159   O     0.08745   0.52352   0.66130   0.00000  Uiso   1.00
O160   O     0.98306   0.50536   0.67640   0.00000  Uiso   1.00
H161   H     0.95738   0.49809   0.58417   0.00000  Uiso   1.00
H162   H     0.10636   0.52469   0.56270   0.00000  Uiso   1.00
H163   H     0.95358   0.49417   0.48360   0.00000  Uiso   1.00
H164   H     0.01305   0.43288   0.30853   0.00000  Uiso   1.00
H165   H    -0.00122   0.44558   0.36622   0.00000  Uiso   1.00
H166   H     0.00453   0.45395   0.21004   0.00000  Uiso   1.00
H167   H     0.10255   0.52070   0.46221   0.00000  Uiso   1.00
H168   H     0.05522   0.58398   0.28885   0.00000  Uiso   1.00
O169   O     0.07684   0.51311   0.37020   0.00000  Uiso   1.00
O170   O     0.97247   0.49501   0.38484   0.00000  Uiso   1.00
H171   H     0.97388   0.42755   0.30835   0.00000  Uiso   1.00
H172   H     0.51700   0.06962   0.84665   0.00000  Uiso   1.00
C173   C     0.50297   0.02366   0.21068   0.00000  Uiso   1.00
C174   C     0.50136   0.99845   0.24154   0.00000  Uiso   1.00
C175   C     0.50083   0.99842   0.29979   0.00000  Uiso   1.00
C176   C     0.50265   0.02440   0.32778   0.00000  Uiso   1.00
C177   C     0.50425   0.04985   0.29694   0.00000  Uiso   1.00
C178   C     0.50411   0.04913   0.23861   0.00000  Uiso   1.00
C179   C     0.49818   0.97063   0.33185   0.00000  Uiso   1.00
C180   C     0.50662   0.07792   0.32602   0.00000  Uiso   1.00
C181   C     0.53232   0.03557   0.41185   0.00000  Uiso   1.00
C182   C     0.53404   0.03546   0.47005   0.00000  Uiso   1.00
C183   C     0.50622   0.02505   0.50302   0.00000  Uiso   1.00
C184   C     0.47725   0.01500   0.47744   0.00000  Uiso   1.00
C185   C     0.47661   0.01518   0.41903   0.00000  Uiso   1.00
C186   C     0.56279   0.04527   0.49596   0.00000  Uiso   1.00
C187   C     0.56392   0.04477   0.55389   0.00000  Uiso   1.00
C188   C     0.53634   0.03450   0.58722   0.00000  Uiso   1.00
C189   C     0.50738   0.02458   0.56169   0.00000  Uiso   1.00
C190   C     0.47956   0.01417   0.59471   0.00000  Uiso   1.00
C191   C     0.45084   0.00447   0.56877   0.00000  Uiso   1.00
C192   C     0.44969   0.00487   0.51080   0.00000  Uiso   1.00
C193   C     0.53694   0.03389   0.64558   0.00000  Uiso   1.00
C194   C     0.48129   0.01379   0.65294   0.00000  Uiso   1.00
C195   C     0.51097   0.02361   0.73690   0.00000  Uiso   1.00
C196   C     0.50521   0.96880   0.73769   0.00000  Uiso   1.00
C197   C     0.51016   0.99800   0.82480   0.00000  Uiso   1.00
C198   C     0.51687   0.07804   0.73544   0.00000  Uiso   1.00
C199   C     0.51481   0.04954   0.82438   0.00000  Uiso   1.00
C200   C     0.51416   0.04981   0.76617   0.00000  Uiso   1.00
C201   C     0.50901   0.99756   0.76654   0.00000  Uiso   1.00
C202   C     0.51269   0.02371   0.85409   0.00000  Uiso   1.00
H203   H     0.49533   0.07052   0.71131   0.00000  Uiso   1.00
N204   N     0.50389   0.02530   0.38758   0.00000  Uiso   1.00
N205   N     0.50967   0.02362   0.67711   0.00000  Uiso   1.00
H206   H     0.53793   0.08861   0.70648   0.00000  Uiso   1.00
H207   H     0.50033   0.97865   0.22011   0.00000  Uiso   1.00
H208   H     0.50566   0.06880   0.21487   0.00000  Uiso   1.00
H209   H     0.49636   0.95197   0.30380   0.00000  Uiso   1.00
H210   H     0.51937   0.97862   0.35720   0.00000  Uiso   1.00
H211   H     0.47665   0.95994   0.35968   0.00000  Uiso   1.00
H212   H     0.52791   0.08893   0.35179   0.00000  Uiso   1.00
H213   H     0.50861   0.09625   0.29599   0.00000  Uiso   1.00
H214   H     0.48518   0.07005   0.35319   0.00000  Uiso   1.00
O215   O     0.44849   0.00488   0.39337   0.00000  Uiso   1.00
O216   O     0.55925   0.04576   0.37910   0.00000  Uiso   1.00
H217   H     0.58449   1.05327   0.47157   0.00000  Uiso   1.00
H218   H     0.42714  -0.00280   0.49224   0.00000  Uiso   1.00
H219   H     0.58647   1.05243   0.57244   0.00000  Uiso   1.00
H220   H     0.48300   0.94737   0.75329   0.00000  Uiso   1.00
H221   H     0.50400   0.97045   0.69193   0.00000  Uiso   1.00
H222   H     0.50831   0.97784   0.84731   0.00000  Uiso   1.00
H223   H     0.42914  -0.00348   0.59317   0.00000  Uiso   1.00
H224   H     0.51944   0.09668   0.76427   0.00000  Uiso   1.00
O225   O     0.45439   0.00359   0.68578   0.00000  Uiso   1.00
O226   O     0.56500   0.04369   0.67116   0.00000  Uiso   1.00
H227   H     0.52556   0.96584   0.74674   0.00000  Uiso   1.00
H228   H     0.09094   0.45061   0.05664   0.00000  Uiso   1.00
C229   C     0.42706   0.49788   0.96763   0.00000  Uiso   1.00
C230   C     0.42081   0.51223   0.92311   0.00000  Uiso   1.00
C231   C     0.39047   0.50808   0.91830   0.00000  Uiso   1.00
C232   C     0.36625   0.48901   0.95837   0.00000  Uiso   1.00
C233   C     0.37186   0.47202   0.99967   0.00000  Uiso   1.00
C234   C     0.40219   0.47660   1.00380   0.00000  Uiso   1.00
C235   C     0.38461   0.52544   0.87271   0.00000  Uiso   1.00
C236   C     0.34616   0.45061   0.04158   0.00000  Uiso   1.00
C237   C     0.31248   0.47075   0.93005   0.00000  Uiso   1.00
C238   C     0.28362   0.47006   0.93663   0.00000  Uiso   1.00
C239   C     0.28066   0.48877   0.97764   0.00000  Uiso   1.00
C240   C     0.30661   0.50832   0.01035   0.00000  Uiso   1.00
C241   C     0.33527   0.50914   0.00084   0.00000  Uiso   1.00
C242   C     0.25763   0.45096   0.90381   0.00000  Uiso   1.00
C243   C     0.22925   0.45078   0.91110   0.00000  Uiso   1.00
C244   C     0.22603   0.46929   0.95202   0.00000  Uiso   1.00
C245   C     0.25169   0.48797   0.98596   0.00000  Uiso   1.00
C246   C     0.24855   0.50604   0.02797   0.00000  Uiso   1.00
C247   C     0.27443   0.52492   0.06115   0.00000  Uiso   1.00
C248   C     0.30322   0.52626   0.05212   0.00000  Uiso   1.00
C249   C     0.19796   0.47004   0.95941   0.00000  Uiso   1.00
C250   C     0.21968   0.50517   0.03509   0.00000  Uiso   1.00
C251   C     0.16743   0.49056   0.00447   0.00000  Uiso   1.00
C252   C     0.19731   0.54473   0.95372   0.00000  Uiso   1.00
C253   C     0.14184   0.52130   0.99115   0.00000  Uiso   1.00
C254   C     0.13801   0.43705   0.05522   0.00000  Uiso   1.00
C255   C     0.11256   0.46939   0.03650   0.00000  Uiso   1.00
C256   C     0.13931   0.46615   0.03123   0.00000  Uiso   1.00
C257   C     0.16842   0.51816   0.98381   0.00000  Uiso   1.00
C258   C     0.11379   0.49709   0.01720   0.00000  Uiso   1.00
H259   H     0.15696   0.44419   0.08564   0.00000  Uiso   1.00
N260   N     0.33751   0.49003   0.96210   0.00000  Uiso   1.00
N261   N     0.19537   0.48799   0.00018   0.00000  Uiso   1.00
H262   H     0.14148   0.42374   0.02156   0.00000  Uiso   1.00
H263   H     0.44004   0.52849   0.89486   0.00000  Uiso   1.00
H264   H     0.40698   0.46505   0.03760   0.00000  Uiso   1.00
H265   H     0.40598   0.53950   0.84510   0.00000  Uiso   1.00
H266   H     0.36520   0.50811   0.84682   0.00000  Uiso   1.00
H267   H     0.37783   0.54189   0.89096   0.00000  Uiso   1.00
H268   H     0.32496   0.43274   0.01976   0.00000  Uiso   1.00
H269   H     0.35389   0.43774   0.06912   0.00000  Uiso   1.00
H270   H     0.33958   0.46481   0.06822   0.00000  Uiso   1.00
O271   O     0.36100   0.52863   0.03163   0.00000  Uiso   1.00
O272   O     0.31538   0.45164   0.89208   0.00000  Uiso   1.00
H273   H     0.25922   0.43628   0.87213   0.00000  Uiso   1.00
H274   H     0.32274   0.54124   0.07822   0.00000  Uiso   1.00
H275   H     0.20983   0.43602   0.88468   0.00000  Uiso   1.00
H276   H     0.20697   0.56659   0.97834   0.00000  Uiso   1.00
H277   H     0.21632   0.53926   0.94648   0.00000  Uiso   1.00
H278   H     0.14290   0.54258   0.97521   0.00000  Uiso   1.00
H279   H     0.27263   0.53898   0.09383   0.00000  Uiso   1.00
H280   H     0.11488   0.42087   0.07698   0.00000  Uiso   1.00
O281   O     0.21620   0.52248   0.07614   0.00000  Uiso   1.00
O282   O     0.17336   0.45338   0.92464   0.00000  Uiso   1.00
H283   H     0.19070   0.54940   0.91246   0.00000  Uiso   1.00
H284   H     0.59517   0.13306   0.05410   0.00000  Uiso   1.00
C285   C     0.94522   0.38866   0.96732   0.00000  Uiso   1.00
C286   C     0.94035   0.36332   0.93404   0.00000  Uiso   1.00
C287   C     0.91008   0.33590   0.93175   0.00000  Uiso   1.00
C288   C     0.88436   0.33422   0.96241   0.00000  Uiso   1.00
C289   C     0.88899   0.36035   0.99358   0.00000  Uiso   1.00
C290   C     0.91935   0.38716   0.99606   0.00000  Uiso   1.00
C291   C     0.90543   0.30826   0.89806   0.00000  Uiso   1.00
C292   C     0.86173   0.35951   1.02504   0.00000  Uiso   1.00
C293   C     0.84683   0.28488   1.01034   0.00000  Uiso   1.00
C294   C     0.81622   0.25833   0.01851   0.00000  Uiso   1.00
C295   C     0.79323   0.25242   0.97920   0.00000  Uiso   1.00
C296   C     0.80121   0.27292   0.93232   0.00000  Uiso   1.00
C297   C     0.83202   0.29959   0.92648   0.00000  Uiso   1.00
C298   C     0.80794   0.23799   0.06547   0.00000  Uiso   1.00
C299   C     0.77708   0.21230   0.07371   0.00000  Uiso   1.00
C300   C     0.75390   0.20620   0.03487   0.00000  Uiso   1.00
C301   C     0.76209   0.22614   0.98716   0.00000  Uiso   1.00
C302   C     0.73914   0.22001   0.94762   0.00000  Uiso   1.00
C303   C     0.74745   0.24034   0.90061   0.00000  Uiso   1.00
C304   C     0.77809   0.26661   0.89320   0.00000  Uiso   1.00
C305   C     0.72261   0.18071   0.04260   0.00000  Uiso   1.00
C306   C     0.70836   0.19372   0.95639   0.00000  Uiso   1.00
C307   C     0.66866   0.14860   0.01236   0.00000  Uiso   1.00
C308   C     0.68544   0.10984   0.97929   0.00000  Uiso   1.00
C309   C     0.62977   0.09199   0.00988   0.00000  Uiso   1.00
C310   C     0.65234   0.18716   0.04606   0.00000  Uiso   1.00
C311   C     0.61354   0.12860   0.03972   0.00000  Uiso   1.00
C312   C     0.64473   0.15414   0.03237   0.00000  Uiso   1.00
C313   C     0.66106   0.11724   0.00123   0.00000  Uiso   1.00
C314   C     0.60578   0.09747   0.02837   0.00000  Uiso   1.00
H315   H     0.66090   0.20268   1.00803   0.00000  Uiso   1.00
N316   N     0.85394   0.30521   0.96558   0.00000  Uiso   1.00
N317   N     0.70062   0.17491   1.00353   0.00000  Uiso   1.00
H318   H     0.67097   0.19724   0.07743   0.00000  Uiso   1.00
H319   H     0.96030   0.36447   0.91159   0.00000  Uiso   1.00
H320   H     0.92291   0.40692   1.02100   0.00000  Uiso   1.00
H321   H     0.92786   0.31308   0.87697   0.00000  Uiso   1.00
H322   H     0.89656   0.28685   0.92561   0.00000  Uiso   1.00
H323   H     0.88789   0.30331   0.86573   0.00000  Uiso   1.00
H324   H     0.85207   0.34034   0.05760   0.00000  Uiso   1.00
H325   H     0.86911   0.38231   1.04564   0.00000  Uiso   1.00
H326   H     0.84280   0.35504   0.99595   0.00000  Uiso   1.00
O327   O     0.83989   0.32052   0.88227   0.00000  Uiso   1.00
O328   O     0.86946   0.29109   0.04849   0.00000  Uiso   1.00
H329   H     0.82518   0.24206   0.09635   0.00000  Uiso   1.00
H330   H     0.78355   0.28199   0.85684   0.00000  Uiso   1.00
H331   H     0.77146   0.19727   0.11060   0.00000  Uiso   1.00
H332   H     0.67777   0.09751   0.93926   0.00000  Uiso   1.00
H333   H     0.70911   0.13136   0.97167   0.00000  Uiso   1.00
H334   H     0.62402   0.06809   0.00049   0.00000  Uiso   1.00
H335   H     0.73022   0.23621   0.86967   0.00000  Uiso   1.00
H336   H     0.63124   0.18725   0.06336   0.00000  Uiso   1.00
O337   O     0.68590   0.18695   0.91761   0.00000  Uiso   1.00
O338   O     0.71404   0.16149   0.08948   0.00000  Uiso   1.00
H339   H     0.68782   0.09407   0.00966   0.00000  Uiso   1.00
H340   H     0.67405   0.56423   1.11455   0.00000  Uiso   1.00
C341   C     0.95621   0.52532   0.01352   0.00000  Uiso   1.00
C342   C     0.93427   0.50949   0.97238   0.00000  Uiso   1.00
C343   C     0.90865   0.51406   0.96568   0.00000  Uiso   1.00
C344   C     0.90433   0.53405   0.00216   0.00000  Uiso   1.00
C345   C     0.92637   0.54983   0.04409   0.00000  Uiso   1.00
C346   C     0.95247   0.54578   0.04862   0.00000  Uiso   1.00
C347   C     0.88639   0.49788   0.91925   0.00000  Uiso   1.00
C348   C     0.92172   0.57017   0.08507   0.00000  Uiso   1.00
C349   C     0.84777   0.51249   1.01545   0.00000  Uiso   1.00
C350   C     0.82070   0.51502   1.01222   0.00000  Uiso   1.00
C351   C     0.82422   0.54417   0.99482   0.00000  Uiso   1.00
C352   C     0.85437   0.56974   0.97837   0.00000  Uiso   1.00
C353   C     0.88044   0.56533   0.97841   0.00000  Uiso   1.00
C354   C     0.79035   0.48929   1.02661   0.00000  Uiso   1.00
C355   C     0.76385   0.49258   1.02426   0.00000  Uiso   1.00
C356   C     0.76728   0.52194   1.00918   0.00000  Uiso   1.00
C357   C     0.79758   0.54788   0.99467   0.00000  Uiso   1.00
C358   C     0.80139   0.57764   0.98092   0.00000  Uiso   1.00
C359   C     0.83161   0.60310   0.96496   0.00000  Uiso   1.00
C360   C     0.85775   0.59907   0.96298   0.00000  Uiso   1.00
C361   C     0.74125   0.52632   1.00960   0.00000  Uiso   1.00
C362   C     0.77489   0.58129   0.98481   0.00000  Uiso   1.00
C363   C     0.71922   0.56053   1.00832   0.00000  Uiso   1.00
C364   C     0.71210   0.56132   0.90343   0.00000  Uiso   1.00
C365   C     0.67558   0.56493   0.97315   0.00000  Uiso   1.00
C366   C     0.72724   0.56123   0.11240   0.00000  Uiso   1.00
C367   C     0.68209   0.56387   1.07235   0.00000  Uiso   1.00
C368   C     0.70928   0.56205   1.06325   0.00000  Uiso   1.00
C369   C     0.70253   0.56258   0.96290   0.00000  Uiso   1.00
C370   C     0.66477   0.56465   1.02774   0.00000  Uiso   1.00
H371   H     0.75247   0.58040   0.10759   0.00000  Uiso   1.00
N372   N     0.87690   0.53733   0.99816   0.00000  Uiso   1.00
N373   N     0.74561   0.55587   0.99952   0.00000  Uiso   1.00
H374   H     0.72572   0.53792   0.11564   0.00000  Uiso   1.00
H375   H     0.93755   0.49400   0.94478   0.00000  Uiso   1.00
H376   H     0.96949   0.55791   0.08048   0.00000  Uiso   1.00
H377   H     0.89447   0.48498   0.89228   0.00000  Uiso   1.00
H378   H     0.86243   0.48033   0.93644   0.00000  Uiso   1.00
H379   H     0.88498   0.51583   0.89301   0.00000  Uiso   1.00
H380   H     0.89775   0.55631   0.10536   0.00000  Uiso   1.00
H381   H     0.93942   0.57841   0.11806   0.00000  Uiso   1.00
H382   H     0.92422   0.59146   0.06351   0.00000  Uiso   1.00
O383   O     0.90963   0.58935   0.95917   0.00000  Uiso   1.00
O384   O     0.84504   0.48511   0.03689   0.00000  Uiso   1.00
H385   H     0.78697   0.46652   1.03959   0.00000  Uiso   1.00
H386   H     0.88070   0.61920   0.95053   0.00000  Uiso   1.00
H387   H     0.74081   0.47224   1.03553   0.00000  Uiso   1.00
H388   H     0.71807   0.58365   0.88078   0.00000  Uiso   1.00
H389   H     0.73288   0.55830   0.89975   0.00000  Uiso   1.00
H390   H     0.66220   0.56548   0.93847   0.00000  Uiso   1.00
H391   H     0.83516   0.62619   0.95402   0.00000  Uiso   1.00
H392   H     0.71751   0.56474   0.15204   0.00000  Uiso   1.00
O393   O     0.77845   0.61057   0.97489   0.00000  Uiso   1.00
O394   O     0.71140   0.50109   1.02223   0.00000  Uiso   1.00
H395   H     0.69217   0.54102   0.88286   0.00000  Uiso   1.00
H396   H     0.13954   0.63394   0.04699   0.00000  Uiso   1.00
C397   C     0.41145   0.94861   0.02196   0.00000  Uiso   1.00
C398   C     0.39160   0.95357   0.98783   0.00000  Uiso   1.00
C399   C     0.36164   0.92823   0.97470   0.00000  Uiso   1.00
C400   C     0.35105   0.89757  -0.00273   0.00000  Uiso   1.00
C401   C     0.37037   0.89282   0.03383   0.00000  Uiso   1.00
C402   C     0.40055   0.91829   0.04524   0.00000  Uiso   1.00
C403   C     0.34163   0.93377   0.93520   0.00000  Uiso   1.00
C404   C     0.35908   0.86059   0.06009   0.00000  Uiso   1.00
C405   C     0.32188   0.85149   0.94061   0.00000  Uiso   1.00
C406   C     0.29403   0.82312   0.92847   0.00000  Uiso   1.00
C407   C     0.26551   0.81543   0.95689   0.00000  Uiso   1.00
C408   C     0.26513   0.83643  -0.00405   0.00000  Uiso   1.00
C409   C     0.29376   0.86416   0.00778   0.00000  Uiso   1.00
C410   C     0.29423   0.80184   0.89006   0.00000  Uiso   1.00
C411   C     0.26677   0.77263   0.88186   0.00000  Uiso   1.00
C412   C     0.23842   0.76424   0.91138   0.00000  Uiso   1.00
C413   C     0.23756   0.78613   0.94773   0.00000  Uiso   1.00
C414   C     0.20912   0.77823  -0.02332   0.00000  Uiso   1.00
C415   C     0.20866   0.80003   0.01353   0.00000  Uiso   1.00
C416   C     0.23641   0.82872   0.02339   0.00000  Uiso   1.00
C417   C     0.21137   0.73380   0.90808   0.00000  Uiso   1.00
C418   C     0.18236   0.74789  -0.02951   0.00000  Uiso   1.00
C419   C     0.16103   0.69264   0.94880   0.00000  Uiso   1.00
C420   C     0.13525   0.69037   0.85666   0.00000  Uiso   1.00
C421   C     0.11475   0.64302   0.92119   0.00000  Uiso   1.00
C422   C     0.18784   0.69431   0.03884   0.00000  Uiso   1.00
C423   C     0.13890   0.64546   1.00876   0.00000  Uiso   1.00
C424   C     0.16205   0.67717   0.99785   0.00000  Uiso   1.00
C425   C     0.13738   0.67529   0.90984   0.00000  Uiso   1.00
C426   C     0.11501   0.62833   0.97122   0.00000  Uiso   1.00
H427   H     0.18580   0.71365   0.05804   0.00000  Uiso   1.00
N428   N     0.32146   0.87080  -0.01908   0.00000  Uiso   1.00
N429   N     0.18457   0.72577   0.93954   0.00000  Uiso   1.00
H430   H     0.21143   0.70452   0.01737   0.00000  Uiso   1.00
H431   H     0.40009   0.97693   0.96935   0.00000  Uiso   1.00
H432   H     0.41578   0.91445   0.07188   0.00000  Uiso   1.00
H433   H     0.35361   0.95895   0.92040   0.00000  Uiso   1.00
H434   H     0.33683   0.91870   0.89839   0.00000  Uiso   1.00
H435   H     0.31883   0.92772   0.95630   0.00000  Uiso   1.00
H436   H     0.35544   0.84332   0.02749   0.00000  Uiso   1.00
H437   H     0.37646   0.86117   0.08937   0.00000  Uiso   1.00
H438   H     0.33638   0.85227   0.08371   0.00000  Uiso   1.00
O439   O     0.29413   0.88411   0.04770   0.00000  Uiso   1.00
O440   O     0.34992   0.85930   0.91341   0.00000  Uiso   1.00
H441   H     0.31580   0.80728   0.86740   0.00000  Uiso   1.00
H442   H     0.23540   0.84453   0.05331   0.00000  Uiso   1.00
H443   H     0.26801   0.75637   0.85330   0.00000  Uiso   1.00
H444   H     0.11151   0.68777   0.85497   0.00000  Uiso   1.00
H445   H     0.15329   0.71603   0.85281   0.00000  Uiso   1.00
H446   H     0.09641   0.62973   0.89189   0.00000  Uiso   1.00
H447   H     0.18710   0.79456   0.03630   0.00000  Uiso   1.00
H448   H     0.18643   0.67814   0.07291   0.00000  Uiso   1.00
O449   O     0.15471   0.73941  -0.00020   0.00000  Uiso   1.00
O450   O     0.21264   0.71129   0.87663   0.00000  Uiso   1.00
H451   H     0.13858   0.67828   0.82066   0.00000  Uiso   1.00
H452   H     0.56576   0.64976   0.08804   0.00000  Uiso   1.00
C453   C     0.53873   0.93960   0.98046   0.00000  Uiso   1.00
C454   C     0.53274   0.92692   0.92717   0.00000  Uiso   1.00
C455   C     0.53594   0.90062   0.91521   0.00000  Uiso   1.00
C456   C     0.54536   0.88713   0.95727   0.00000  Uiso   1.00
C457   C     0.55295   0.90100   0.00990   0.00000  Uiso   1.00
C458   C     0.54977   0.92713   1.02077   0.00000  Uiso   1.00
C459   C     0.52853   0.88654   0.85847   0.00000  Uiso   1.00
C460   C     0.56318   0.88722   0.05542   0.00000  Uiso   1.00
C461   C     0.57285   0.85909   0.93550   0.00000  Uiso   1.00
C462   C     0.57459   0.83140   0.93932   0.00000  Uiso   1.00
C463   C     0.54723   0.80252   0.95603   0.00000  Uiso   1.00
C464   C     0.51845   0.80150   0.96659   0.00000  Uiso   1.00
C465   C     0.51788   0.82977   0.96233   0.00000  Uiso   1.00
C466   C     0.60318   0.83212   0.92894   0.00000  Uiso   1.00
C467   C     0.60474   0.80465   0.93616   0.00000  Uiso   1.00
C468   C     0.57774   0.77586   0.95389   0.00000  Uiso   1.00
C469   C     0.54882   0.77475   0.96341   0.00000  Uiso   1.00
C470   C     0.52157   0.74602  -0.01891   0.00000  Uiso   1.00
C471   C     0.49284   0.74514  -0.00961   0.00000  Uiso   1.00
C472   C     0.49129   0.77258  -0.01676   0.00000  Uiso   1.00
C473   C     0.57886   0.74807   0.96265   0.00000  Uiso   1.00
C474   C     0.52384   0.71889  -0.01067   0.00000  Uiso   1.00
C475   C     0.55351   0.69195  -0.01228   0.00000  Uiso   1.00
C476   C     0.53829   0.67739   0.88680   0.00000  Uiso   1.00
C477   C     0.54572   0.64228   0.95254   0.00000  Uiso   1.00
C478   C     0.56834   0.70654   0.08776   0.00000  Uiso   1.00
C479   C     0.56063   0.65592   0.04785   0.00000  Uiso   1.00
C480   C     0.56085   0.68446   0.04008   0.00000  Uiso   1.00
C481   C     0.54613   0.67072   0.94359   0.00000  Uiso   1.00
C482   C     0.55291   0.63483   0.00428   0.00000  Uiso   1.00
H483   H     0.54788   0.70956   0.09746   0.00000  Uiso   1.00
N484   N     0.54507   0.85796   0.94881   0.00000  Uiso   1.00
N485   N     0.55216   0.72039   0.98016   0.00000  Uiso   1.00
H486   H     0.58942   0.73006   0.07648   0.00000  Uiso   1.00
H487   H     0.52447   0.93670   0.89579   0.00000  Uiso   1.00
H488   H     0.55499   0.93721   0.06173   0.00000  Uiso   1.00
H489   H     0.52198   0.90006   0.83001   0.00000  Uiso   1.00
H490   H     0.54960   0.88689   0.83992   0.00000  Uiso   1.00
H491   H     0.50845   0.86163   0.86182   0.00000  Uiso   1.00
H492   H     0.58536   0.88804   0.04217   0.00000  Uiso   1.00
H493   H     0.56771   0.90059   0.09441   0.00000  Uiso   1.00
H494   H     0.54440   0.86221   0.06485   0.00000  Uiso   1.00
O495   O     0.49036   0.82945   0.97509   0.00000  Uiso   1.00
O496   O     0.59956   0.88768   0.92152   0.00000  Uiso   1.00
H497   H     0.62455   0.85399   0.91600   0.00000  Uiso   1.00
H498   H     0.46885   0.77113  -0.00845   0.00000  Uiso   1.00
H499   H     0.62723   0.80615   0.92830   0.00000  Uiso   1.00
H500   H     0.51408   0.65829   0.87654   0.00000  Uiso   1.00
H501   H     0.53919   0.70039   0.88372   0.00000  Uiso   1.00
H502   H     0.53955   0.62571   0.91903   0.00000  Uiso   1.00
H503   H     0.47152   0.72333   0.00373   0.00000  Uiso   1.00
H504   H     0.57347   0.69725   0.12588   0.00000  Uiso   1.00
O505   O     0.49752   0.69072   0.00666   0.00000  Uiso   1.00
O506   O     0.60680   0.74866   0.95355   0.00000  Uiso   1.00
H507   H     0.55548   0.67796   0.85532   0.00000  Uiso   1.00
H508   H     0.43590   0.09932   0.94189   0.00000  Uiso   1.00
C509   C     0.53332   0.45163   0.00973   0.00000  Uiso   1.00
C510   C     0.56005   0.44839   0.00601   0.00000  Uiso   1.00
C511   C     0.55673   0.41845   0.99941   0.00000  Uiso   1.00
C512   C     0.52617   0.39131  -0.00356   0.00000  Uiso   1.00
C513   C     0.49924   0.39443  -0.00015   0.00000  Uiso   1.00
C514   C     0.50306   0.42450   0.00655   0.00000  Uiso   1.00
C515   C     0.58570   0.41551   0.99552   0.00000  Uiso   1.00
C516   C     0.46647   0.36582  -0.00395   0.00000  Uiso   1.00
C517   C     0.51720   0.34201   0.03763   0.00000  Uiso   1.00
C518   C     0.51209   0.31124   0.03326   0.00000  Uiso   1.00
C519   C     0.51279   0.29976   0.98013   0.00000  Uiso   1.00
C520   C     0.51874   0.31918   0.93245   0.00000  Uiso   1.00
C521   C     0.52334   0.34969   0.93886   0.00000  Uiso   1.00
C522   C     0.50616   0.29170   0.08055   0.00000  Uiso   1.00
C523   C     0.50058   0.26097   0.07516   0.00000  Uiso   1.00
C524   C     0.50111   0.24924   0.02239   0.00000  Uiso   1.00
C525   C     0.50751   0.26877   0.97471   0.00000  Uiso   1.00
C526   C     0.50871   0.25740   0.92170   0.00000  Uiso   1.00
C527   C     0.51494   0.27710   0.87444   0.00000  Uiso   1.00
C528   C     0.51978   0.30761   0.87975   0.00000  Uiso   1.00
C529   C     0.49561   0.21845   0.01610   0.00000  Uiso   1.00
C530   C     0.50384   0.22663   0.91756   0.00000  Uiso   1.00
C531   C     0.49345   0.17678   0.96033   0.00000  Uiso   1.00
C532   C     0.55034   0.19884   0.99045   0.00000  Uiso   1.00
C533   C     0.51220   0.14090   0.98194   0.00000  Uiso   1.00
C534   C     0.43712   0.15508   0.93024   0.00000  Uiso   1.00
C535   C     0.45884   0.11963   0.95068   0.00000  Uiso   1.00
C536   C     0.46384   0.15048   0.94651   0.00000  Uiso   1.00
C537   C     0.51804   0.17185   0.97658   0.00000  Uiso   1.00
C538   C     0.48264   0.11476   0.97007   0.00000  Uiso   1.00
H539   H     0.44405   0.17030   0.89196   0.00000  Uiso   1.00
N540   N     0.52236   0.36039   0.99081   0.00000  Uiso   1.00
N541   N     0.49735   0.20786   0.96440   0.00000  Uiso   1.00
H542   H     0.43144   0.16661   0.96437   0.00000  Uiso   1.00
H543   H     0.58353   0.46922   0.00789   0.00000  Uiso   1.00
H544   H     0.48229   0.42675   0.00887   0.00000  Uiso   1.00
H545   H     0.60783   0.43888   0.99918   0.00000  Uiso   1.00
H546   H     0.58464   0.39945   0.02945   0.00000  Uiso   1.00
H547   H     0.58683   0.40562   0.95482   0.00000  Uiso   1.00
H548   H     0.46181   0.34871   0.03073   0.00000  Uiso   1.00
H549   H     0.44799   0.37238  -0.00141   0.00000  Uiso   1.00
H550   H     0.46437   0.35411   0.95584   0.00000  Uiso   1.00
O551   O     0.52856   0.36876   0.89283   0.00000  Uiso   1.00
O552   O     0.51664   0.35361   0.08907   0.00000  Uiso   1.00
H553   H     0.50569   0.30002   0.12187   0.00000  Uiso   1.00
H554   H     0.52441   0.32212   0.84246   0.00000  Uiso   1.00
H555   H     0.49600   0.24651   0.11248   0.00000  Uiso   1.00
H556   H     0.56870   0.19755   0.96479   0.00000  Uiso   1.00
H557   H     0.55319   0.22246   0.98223   0.00000  Uiso   1.00
H558   H     0.53078   0.13714   0.99626   0.00000  Uiso   1.00
H559   H     0.51599   0.26899   0.83319   0.00000  Uiso   1.00
H560   H     0.41536   0.13213   0.92189   0.00000  Uiso   1.00
O561   O     0.50605   0.21554   0.86652   0.00000  Uiso   1.00
O562   O     0.48889   0.19898   0.06218   0.00000  Uiso   1.00
H563   H     0.55455   0.19696   1.03508   0.00000  Uiso   1.00
loop_
_geom_bond_atom_site_label_1
_geom_bond_atom_site_label_2
_geom_bond_distance
_geom_bond_site_symmetry_2
_ccdc_geom_bond_type
C0     O8      1.217   .     D
C0     O9      1.394   .     S
C0     C370    1.473   .     S
Er1    O11     2.162   .     S
Er1    O13     2.169   .     S
Er1    O17     2.170   .     S
Er1    O15     2.187   1_554 S
Er1    O18     2.217   1_554 S
Er1    O19     2.167   1_554 S
Er2    O10     2.179   .     S
Er2    O12     2.176   .     S
Er2    O16     2.172   .     S
Er2    O4      2.169   1_554 S
Er2    O9      2.231   1_554 S
C3     O16     1.273   .     A
C3     O17     1.272   .     A
C3     C482    1.464   .     S
O4     C14     1.271   .     A
O4     Er2     2.169   1_556 S
C5     O12     1.267   .     A
C5     O13     1.266   .     A
C5     C61     1.479   .     S
C6     O10     1.273   .     A
C6     O11     1.271   .     A
C6     C509    1.480   .     S
C7     O18     1.271   .     A
C7     O19     1.255   .     A
C7     C229    1.470   .     S
O9     Er2     2.231   1_556 S
C14    O15     1.278   .     A
C14    C90     1.476   .     S
O15    Er1     2.187   1_556 S
O18    Er1     2.217   1_556 S
O19    Er1     2.167   1_556 S
C20    O28     1.217   .     D
C20    O29     1.392   .     S
C20    C285    1.476   .     S
Er21   O31     2.166   .     S
Er21   O33     2.173   .     S
Er21   O37     2.173   .     S
Er21   O35     2.192   1_554 S
Er21   O38     2.165   1_554 S
Er21   O39     2.224   1_554 S
Er22   O30     2.175   .     S
Er22   O24     2.166   1_654 S
Er22   O29     2.221   1_554 S
Er22   O32     2.171   1_655 S
Er22   O36     2.177   1_655 S
C23    O36     1.273   .     A
C23    O37     1.273   .     A
C23    C258    1.481   .     S
O24    C34     1.272   .     A
O24    Er22    2.166   1_456 S
C25    O32     1.266   .     A
C25    O33     1.267   .     A
C25    C146    1.480   .     S
C26    O30     1.273   .     A
C26    C341    1.469   .     S
C26    O31     1.271   1_655 A
C27    O38     1.252   .     A
C27    O39     1.269   .     A
C27    C426    1.473   .     S
O29    Er22    2.221   1_556 S
O31    C26     1.271   1_455 A
O32    Er22    2.171   1_455 S
C34    O35     1.280   .     A
C34    C117    1.481   .     S
O35    Er21    2.192   1_556 S
O36    Er22    2.177   1_455 S
O38    Er21    2.165   1_556 S
O39    Er21    2.224   1_556 S
C40    O48     1.218   .     D
C40    O49     1.389   .     S
C40    C538    1.469   .     S
Er41   O57     2.173   .     S
Er41   O51     2.177   1_565 S
Er41   O53     2.172   1_565 S
Er41   O55     2.195   1_564 S
Er41   O58     2.220   1_554 S
Er41   O59     2.167   1_554 S
Er42   O50     2.167   .     S
Er42   O52     2.165   .     S
Er42   O56     2.170   .     S
Er42   O44     2.165   1_554 S
Er42   O49     2.212   1_554 S
C43    O57     1.273   .     A
C43    C397    1.476   .     S
C43    O56     1.273   1_565 A
O44    C54     1.271   .     A
O44    Er42    2.165   1_556 S
C45    O52     1.265   .     A
C45    O53     1.266   .     A
C45    C173    1.475   .     S
C46    O50     1.271   .     A
C46    O51     1.273   .     A
C46    C314    1.480   .     S
C47    O58     1.271   .     A
C47    O59     1.254   .     A
C47    C453    1.475   .     S
O49    Er42    2.212   1_556 S
O51    Er41    2.177   1_545 S
O53    Er41    2.172   1_545 S
C54    O55     1.280   .     A
C54    C202    1.480   .     S
O55    Er41    2.195   1_546 S
O56    C43     1.273   1_545 A
O58    Er41    2.220   1_556 S
O59    Er41    2.167   1_556 S
H60    C87     1.084   .     S
C61    C62     1.404   .     A
C61    C66     1.403   .     A
C62    C63     1.401   .     A
C62    H95     1.084   .     S
C63    C64     1.410   .     A
C63    C67     1.505   .     S
C64    C65     1.412   .     A
C64    N92     1.441   .     S
C65    C66     1.405   .     A
C65    C68     1.504   .     S
C66    H96     1.083   .     S
C67    H97     1.111   .     S
C67    H98     1.110   .     S
C67    H99     1.110   .     S
C68    H100    1.110   .     S
C68    H101    1.111   .     S
C68    H102    1.110   .     S
C69    C70     1.405   .     A
C69    N92     1.370   .     A
C69    O104    1.373   .     S
C70    C71     1.409   .     A
C70    C74     1.405   .     A
C71    C72     1.409   .     A
C71    C77     1.414   .     A
C72    C73     1.405   .     A
C72    C80     1.406   .     A
C73    N92     1.370   .     A
C73    O103    1.373   .     S
C74    C75     1.397   .     A
C74    H105    1.083   .     S
C75    C76     1.405   .     A
C75    H107    1.083   .     S
C76    C77     1.409   .     A
C76    C81     1.404   .     A
C77    C78     1.409   .     A
C78    C79     1.405   .     A
C78    C82     1.405   .     A
C79    C80     1.397   .     A
C79    H111    1.083   .     S
C80    H106    1.083   .     S
C81    N93     1.370   .     A
C81    O114    1.373   .     S
C82    N93     1.370   .     A
C82    O113    1.373   .     S
C83    C88     1.412   .     A
C83    C89     1.414   .     A
C83    N93     1.439   .     S
C84    C89     1.506   .     S
C84    H108    1.110   .     S
C84    H109    1.108   .     S
C84    H115    1.110   .     S
C85    C89     1.401   .     A
C85    C90     1.402   .     A
C85    H110    1.084   .     S
C86    C88     1.506   .     S
C86    H91     1.110   .     S
C86    H94     1.110   .     S
C86    H112    1.111   .     S
C87    C88     1.401   .     A
C87    C90     1.402   .     A
H116   C143    1.084   .     S
C117   C118    1.405   .     A
C117   C122    1.403   .     A
C118   C119    1.401   .     A
C118   H151    1.083   .     S
C119   C120    1.410   .     A
C119   C123    1.505   .     S
C120   C121    1.413   .     A
C120   N148    1.442   .     S
C121   C122    1.406   .     A
C121   C124    1.504   .     S
C122   H152    1.084   .     S
C123   H153    1.111   .     S
C123   H154    1.110   .     S
C123   H155    1.110   .     S
C124   H156    1.110   .     S
C124   H157    1.111   .     S
C124   H158    1.110   .     S
C125   C126    1.406   .     A
C125   N148    1.371   .     A
C125   O160    1.373   1_455 S
C126   C127    1.408   .     A
C126   C130    1.406   1_455 A
C127   C128    1.409   .     A
C127   C133    1.415   .     A
C128   C129    1.406   .     A
C128   C136    1.405   .     A
C129   N148    1.369   .     A
C129   O159    1.373   .     S
C130   C131    1.398   .     A
C130   H161    1.083   .     S
C130   C126    1.406   1_655 A
C131   H163    1.083   .     S
C131   C132    1.405   1_655 A
C132   C133    1.409   .     A
C132   C137    1.407   .     A
C132   C131    1.405   1_455 A
C133   C134    1.408   .     A
C134   C135    1.405   .     A
C134   C138    1.405   .     A
C135   C136    1.397   .     A
C135   H167    1.083   .     S
C136   H162    1.083   .     S
C137   N149    1.370   .     A
C137   O170    1.373   1_455 S
C138   N149    1.370   .     A
C138   O169    1.373   .     S
C139   C144    1.411   .     A
C139   C145    1.415   .     A
C139   N149    1.442   .     S
C140   C145    1.505   .     S
C140   H164    1.110   .     S
C140   H165    1.109   .     S
C140   H171    1.110   1_455 S
C141   C145    1.405   .     A
C141   C146    1.403   .     A
C141   H166    1.084   .     S
C142   C144    1.506   .     S
C142   H147    1.110   .     S
C142   H150    1.110   .     S
C142   H168    1.111   .     S
C143   C144    1.401   .     A
C143   C146    1.404   .     A
O160   C125    1.373   1_655 S
O170   C137    1.373   1_655 S
H171   C140    1.110   1_655 S
H172   C199    1.084   .     S
C173   C178    1.402   .     A
C173   C174    1.402   1_545 A
C174   C175    1.401   .     A
C174   H207    1.084   .     S
C174   C173    1.402   1_565 A
C175   C179    1.504   .     S
C175   C176    1.411   1_565 A
C176   C177    1.412   .     A
C176   N204    1.442   .     S
C176   C175    1.411   1_545 A
C177   C178    1.404   .     A
C177   C180    1.503   .     S
C178   H208    1.084   .     S
C179   H209    1.111   .     S
C179   H210    1.110   .     S
C179   H211    1.110   .     S
C180   H212    1.110   .     S
C180   H213    1.111   .     S
C180   H214    1.110   .     S
C181   C182    1.405   .     A
C181   N204    1.370   .     A
C181   O216    1.373   .     S
C182   C183    1.408   .     A
C182   C186    1.405   .     A
C183   C184    1.409   .     A
C183   C189    1.415   .     A
C184   C185    1.407   .     A
C184   C192    1.405   .     A
C185   N204    1.370   .     A
C185   O215    1.373   .     S
C186   C187    1.397   .     A
C186   H217    1.083   1_545 S
C187   C188    1.405   .     A
C187   H219    1.083   1_545 S
C188   C189    1.409   .     A
C188   C193    1.406   .     A
C189   C190    1.409   .     A
C190   C191    1.406   .     A
C190   C194    1.406   .     A
C191   C192    1.398   .     A
C191   H223    1.083   .     S
C192   H218    1.083   .     S
C193   N205    1.370   .     A
C193   O226    1.373   .     S
C194   N205    1.370   .     A
C194   O225    1.373   .     S
C195   C200    1.411   .     A
C195   N205    1.441   .     S
C195   C201    1.415   1_545 A
C196   C201    1.505   .     S
C196   H220    1.110   .     S
C196   H221    1.108   .     S
C196   H227    1.110   .     S
C197   C201    1.404   .     A
C197   H222    1.084   .     S
C197   C202    1.402   1_565 A
C198   C200    1.506   .     S
C198   H203    1.110   .     S
C198   H206    1.110   .     S
C198   H224    1.111   .     S
C199   C200    1.402   .     A
C199   C202    1.404   .     A
C201   C195    1.415   1_565 A
C202   C197    1.402   1_545 A
H217   C186    1.083   1_565 S
H219   C187    1.083   1_565 S
H228   C255    1.084   .     S
C229   C230    1.400   .     A
C229   C234    1.400   .     A
C230   C231    1.408   .     A
C230   H263    1.084   .     S
C231   C232    1.415   .     A
C231   C235    1.504   .     S
C232   C233    1.411   .     A
C232   N260    1.442   .     S
C233   C234    1.397   .     A
C233   C236    1.506   1_556 S
C234   H264    1.084   1_556 S
C235   H265    1.111   .     S
C235   H266    1.110   .     S
C235   H267    1.110   .     S
C236   H268    1.110   .     S
C236   H269    1.111   .     S
C236   H270    1.110   .     S
C236   C233    1.506   1_554 S
C237   C238    1.408   .     A
C237   N260    1.369   .     A
C237   O272    1.373   .     S
C238   C239    1.410   .     A
C238   C242    1.405   .     A
C239   C245    1.415   .     A
C239   C240    1.407   1_556 A
C240   C241    1.403   .     A
C240   C248    1.405   .     A
C240   C239    1.407   1_554 A
C241   O271    1.374   .     S
C241   N260    1.371   1_554 A
C242   C243    1.399   .     A
C242   H273    1.083   .     S
C243   C244    1.407   .     A
C243   H275    1.083   .     S
C244   C245    1.408   .     A
C244   C249    1.408   .     A
C245   C246    1.409   1_556 A
C246   C247    1.405   .     A
C246   C250    1.405   .     A
C246   C245    1.409   1_554 A
C247   C248    1.396   .     A
C247   H279    1.083   .     S
C248   H274    1.083   .     S
C249   O282    1.373   .     S
C249   N261    1.372   1_556 A
C250   N261    1.371   .     A
C250   O281    1.373   .     S
C251   C256    1.415   .     A
C251   N261    1.445   .     S
C251   C257    1.415   1_554 A
C252   C257    1.507   .     S
C252   H276    1.110   .     S
C252   H277    1.108   .     S
C252   H283    1.110   .     S
C253   C257    1.401   .     A
C253   H278    1.084   .     S
C253   C258    1.403   1_556 A
C254   C256    1.505   .     S
C254   H259    1.110   .     S
C254   H262    1.109   .     S
C254   H280    1.110   .     S
C255   C256    1.408   .     A
C255   C258    1.402   .     A
C257   C251    1.415   1_556 A
C258   C253    1.403   1_554 A
N260   C241    1.371   1_556 A
N261   C249    1.372   1_554 A
H264   C234    1.084   1_554 S
H284   C311    1.084   .     S
C285   C286    1.404   .     A
C285   C290    1.401   .     A
C286   C287    1.408   .     A
C286   H319    1.084   .     S
C287   C288    1.413   .     A
C287   C291    1.505   .     S
C288   C289    1.410   .     A
C288   N316    1.442   .     S
C289   C290    1.399   .     A
C289   C292    1.505   .     S
C290   H320    1.084   .     S
C291   H321    1.111   .     S
C291   H322    1.110   .     S
C291   H323    1.110   .     S
C292   H325    1.111   .     S
C292   H326    1.110   .     S
C292   H324    1.109   1_556 S
C293   N316    1.370   .     A
C293   C294    1.404   1_556 A
C293   O328    1.373   1_556 S
C294   C298    1.405   .     A
C294   C293    1.404   1_554 A
C294   C295    1.408   1_554 A
C295   C296    1.409   .     A
C295   C301    1.414   .     A
C295   C294    1.408   1_556 A
C296   C297    1.407   .     A
C296   C304    1.405   .     A
C297   N316    1.370   .     A
C297   O327    1.373   .     S
C298   C299    1.396   .     A
C298   H329    1.083   .     S
C299   C300    1.405   .     A
C299   H331    1.083   .     S
C300   C305    1.405   .     A
C300   C301    1.409   1_554 A
C301   C302    1.408   .     A
C301   C300    1.409   1_556 A
C302   C303    1.406   .     A
C302   C306    1.406   .     A
C303   C304    1.398   .     A
C303   H335    1.083   .     S
C304   H330    1.083   .     S
C305   O338    1.373   .     S
C305   N317    1.370   1_554 A
C306   N317    1.370   .     A
C306   O337    1.373   .     S
C307   C312    1.413   .     A
C307   C313    1.416   .     A
C307   N317    1.442   1_554 S
C308   H332    1.110   .     S
C308   H333    1.108   .     S
C308   C313    1.506   1_556 S
C308   H339    1.110   1_556 S
C309   C313    1.404   .     A
C309   C314    1.402   .     A
C309   H334    1.084   .     S
C310   C312    1.507   .     S
C310   H318    1.110   .     S
C310   H336    1.111   .     S
C310   H315    1.110   1_554 S
C311   C312    1.402   .     A
C311   C314    1.404   .     A
C313   C308    1.506   1_554 S
H315   C310    1.110   1_556 S
N317   C305    1.370   1_556 A
N317   C307    1.442   1_556 S
H324   C292    1.109   1_554 S
O328   C293    1.373   1_554 S
H339   C308    1.110   1_554 S
H340   C367    1.084   .     S
C341   C346    1.398   .     A
C341   C342    1.399   1_554 A
C342   C343    1.402   .     A
C342   H375    1.084   .     S
C342   C341    1.399   1_556 A
C343   C347    1.506   .     S
C343   C344    1.415   1_556 A
C344   C345    1.416   .     A
C344   C343    1.415   1_554 A
C344   N372    1.444   1_554 S
C345   C346    1.403   .     A
C345   C348    1.505   .     S
C346   H376    1.084   .     S
C347   H377    1.111   .     S
C347   H378    1.108   .     S
C347   H379    1.110   .     S
C348   H380    1.110   .     S
C348   H381    1.110   .     S
C348   H382    1.109   .     S
C349   C350    1.404   .     A
C349   N372    1.371   .     A
C349   O384    1.373   1_556 S
C350   C351    1.408   .     A
C350   C354    1.405   .     A
C351   C352    1.408   .     A
C351   C357    1.413   .     A
C352   C353    1.407   .     A
C352   C360    1.406   .     A
C353   N372    1.372   .     A
C353   O383    1.373   .     S
C354   C355    1.396   .     A
C354   H385    1.083   .     S
C355   C356    1.405   .     A
C355   H387    1.083   .     S
C356   C357    1.408   .     A
C356   C361    1.404   .     A
C357   C358    1.409   .     A
C358   C359    1.405   .     A
C358   C362    1.406   .     A
C359   C360    1.398   .     A
C359   H391    1.083   .     S
C360   H386    1.083   .     S
C361   N373    1.370   .     A
C361   O394    1.373   .     S
C362   N373    1.370   .     A
C362   O393    1.373   .     S
C363   C368    1.413   .     A
C363   C369    1.417   .     A
C363   N373    1.441   .     S
C364   C369    1.507   .     S
C364   H388    1.110   .     S
C364   H389    1.108   .     S
C364   H395    1.110   .     S
C365   C369    1.406   .     A
C365   C370    1.402   .     A
C365   H390    1.084   .     S
C366   H371    1.110   .     S
C366   H374    1.109   .     S
C366   H392    1.111   .     S
C366   C368    1.507   1_554 S
C367   C368    1.398   .     A
C367   C370    1.400   .     A
C368   C366    1.507   1_556 S
N372   C344    1.444   1_556 S
O384   C349    1.373   1_554 S
H396   C423    1.084   1_554 S
C397   C402    1.401   .     A
C397   C398    1.403   1_554 A
C398   C399    1.404   .     A
C398   H431    1.084   .     S
C398   C397    1.403   1_556 A
C399   C403    1.505   .     S
C399   C400    1.412   1_556 A
C400   C401    1.414   .     A
C400   N428    1.442   .     S
C400   C399    1.412   1_554 A
C401   C402    1.402   .     A
C401   C404    1.506   .     S
C402   H432    1.084   .     S
C403   H433    1.111   .     S
C403   H434    1.110   .     S
C403   H435    1.110   .     S
C404   H436    1.110   .     S
C404   H437    1.111   .     S
C404   H438    1.110   .     S
C405   C406    1.405   .     A
C405   O440    1.373   .     S
C405   N428    1.371   1_556 A
C406   C407    1.408   .     A
C406   C410    1.405   .     A
C407   C413    1.414   .     A
C407   C408    1.409   1_556 A
C408   C409    1.407   .     A
C408   C416    1.405   .     A
C408   C407    1.409   1_554 A
C409   N428    1.370   .     A
C409   O439    1.373   .     S
C410   C411    1.397   .     A
C410   H441    1.083   .     S
C411   C412    1.405   .     A
C411   H443    1.083   .     S
C412   C413    1.409   .     A
C412   C417    1.406   .     A
C413   C414    1.408   1_556 A
C414   C415    1.406   .     A
C414   C418    1.406   .     A
C414   C413    1.408   1_554 A
C415   C416    1.398   .     A
C415   H447    1.083   .     S
C416   H442    1.083   .     S
C417   N429    1.370   .     A
C417   O450    1.373   .     S
C418   O449    1.373   .     S
C418   N429    1.371   1_554 A
C419   C424    1.412   .     A
C419   C425    1.419   .     A
C419   N429    1.443   .     S
C420   C425    1.504   .     S
C420   H444    1.110   .     S
C420   H445    1.109   .     S
C420   H451    1.110   .     S
C421   C425    1.410   .     A
C421   C426    1.400   .     A
C421   H446    1.084   .     S
C422   H427    1.109   .     S
C422   H430    1.110   .     S
C422   H448    1.111   .     S
C422   C424    1.509   1_554 S
C423   C424    1.395   .     A
C423   C426    1.400   .     A
C423   H396    1.084   1_556 S
C424   C422    1.509   1_556 S
N428   C405    1.371   1_554 A
N429   C418    1.371   1_556 A
H452   C479    1.084   .     S
C453   C454    1.402   .     A
C453   C458    1.402   .     A
C454   C455    1.410   .     A
C454   H487    1.084   .     S
C455   C456    1.415   .     A
C455   C459    1.504   .     S
C456   N484    1.441   .     S
C456   C457    1.410   1_556 A
C457   C460    1.508   .     S
C457   C456    1.410   1_554 A
C457   C458    1.396   1_554 A
C458   C457    1.396   1_556 A
C458   H488    1.084   1_556 S
C459   H489    1.111   .     S
C459   H490    1.110   .     S
C459   H491    1.110   .     S
C460   H492    1.110   .     S
C460   H493    1.111   .     S
C460   H494    1.110   .     S
C461   C462    1.407   .     A
C461   N484    1.370   .     A
C461   O496    1.373   .     S
C462   C463    1.409   .     A
C462   C466    1.405   .     A
C463   C464    1.408   .     A
C463   C469    1.414   .     A
C464   C465    1.405   .     A
C464   C472    1.405   1_556 A
C465   N484    1.371   .     A
C465   O495    1.373   .     S
C466   C467    1.398   .     A
C466   H497    1.083   .     S
C467   C468    1.406   .     A
C467   H499    1.083   .     S
C468   C469    1.409   .     A
C468   C473    1.407   .     A
C469   C470    1.409   1_556 A
C470   C471    1.405   .     A
C470   C474    1.405   .     A
C470   C469    1.409   1_554 A
C471   C472    1.397   .     A
C471   H503    1.083   .     S
C472   H498    1.083   .     S
C472   C464    1.405   1_554 A
C473   N485    1.370   .     A
C473   O506    1.373   .     S
C474   O505    1.373   .     S
C474   N485    1.370   1_554 A
C475   C480    1.415   .     A
C475   C481    1.414   1_554 A
C475   N485    1.441   1_554 S
C476   C481    1.506   .     S
C476   H500    1.110   .     S
C476   H501    1.108   .     S
C476   H507    1.110   .     S
C477   C481    1.400   .     A
C477   H502    1.085   .     S
C477   C482    1.398   1_556 A
C478   C480    1.505   .     S
C478   H483    1.110   .     S
C478   H486    1.110   .     S
C478   H504    1.111   .     S
C479   C480    1.406   .     A
C479   C482    1.398   .     A
C481   C475    1.414   1_556 A
C482   C477    1.398   1_554 A
N485   C474    1.370   1_556 A
N485   C475    1.441   1_556 S
H488   C458    1.084   1_554 S
H508   C535    1.084   .     S
C509   C510    1.405   .     A
C509   C514    1.404   .     A
C510   H543    1.084   .     S
C510   C511    1.404   1_554 A
C511   C515    1.506   .     S
C511   C510    1.404   1_556 A
C511   C512    1.412   1_556 A
C512   C513    1.411   .     A
C512   C511    1.412   1_554 A
C512   N540    1.439   1_554 S
C513   C514    1.401   .     A
C513   C516    1.506   .     S
C514   H544    1.083   .     S
C515   H545    1.111   .     S
C515   H547    1.110   .     S
C515   H546    1.110   1_556 S
C516   H548    1.110   .     S
C516   H549    1.111   .     S
C516   H550    1.110   1_554 S
C517   C518    1.404   .     A
C517   O552    1.373   .     S
C517   N540    1.369   1_554 A
C518   C522    1.404   .     A
C518   C519    1.409   1_554 A
C519   C520    1.408   .     A
C519   C525    1.414   .     A
C519   C518    1.409   1_556 A
C520   C521    1.405   .     A
C520   C528    1.405   .     A
C521   N540    1.370   .     A
C521   O551    1.373   .     S
C522   C523    1.395   .     A
C522   H553    1.083   .     S
C523   C524    1.405   .     A
C523   H555    1.083   .     S
C524   C529    1.403   .     A
C524   C525    1.408   1_554 A
C525   C526    1.409   .     A
C525   C524    1.408   1_556 A
C526   C527    1.406   .     A
C526   C530    1.408   .     A
C527   C528    1.398   .     A
C527   H559    1.083   .     S
C528   H554    1.083   .     S
C529   O562    1.373   .     S
C529   N541    1.370   1_554 A
C530   N541    1.370   .     A
C530   O561    1.373   .     S
C531   C536    1.415   .     A
C531   C537    1.414   .     A
C531   N541    1.441   .     S
C532   C537    1.506   .     S
C532   H556    1.110   .     S
C532   H557    1.108   .     S
C532   H563    1.111   .     S
C533   C537    1.397   .     A
C533   C538    1.399   .     A
C533   H558    1.085   .     S
C534   C536    1.504   .     S
C534   H539    1.109   .     S
C534   H542    1.110   .     S
C534   H560    1.111   .     S
C535   C536    1.406   .     A
C535   C538    1.400   .     A
N540   C512    1.439   1_556 S
N540   C517    1.369   1_556 A
N541   C529    1.370   1_556 A
H546   C515    1.110   1_554 S
H550   C516    1.110   1_556 S
