data_kag+N394+E229
_audit_creation_date              2025-01-21
_audit_creation_method            'Materials Studio'
_symmetry_space_group_name_H-M    'P1'
_symmetry_Int_Tables_number       1
_symmetry_cell_setting            triclinic
loop_
_symmetry_equiv_pos_as_xyz
  x,y,z
_cell_length_a                    45.4712
_cell_length_b                    46.8947
_cell_length_c                    22.6099
_cell_angle_alpha                 90.3399
_cell_angle_beta                  88.0274
_cell_angle_gamma                 112.6688
loop_
_atom_site_label
_atom_site_type_symbol
_atom_site_fract_x
_atom_site_fract_y
_atom_site_fract_z
_atom_site_U_iso_or_equiv
_atom_site_adp_type
_atom_site_occupancy
Pr0    Pr    0.52989   0.54401   0.04810   0.00000  Uiso   1.00
Pr1    Pr    0.49818   0.48512   0.98506   0.00000  Uiso   1.00
O2     O     0.45814   0.50246   0.97455   0.00000  Uiso   1.00
O3     O     0.48206   0.54776   0.02288   0.00000  Uiso   1.00
O4     O     0.55660   0.59586   1.03472   0.00000  Uiso   1.00
O5     O     0.50529   0.57781   0.03867   0.00000  Uiso   1.00
O6     O     0.49641   0.49716   0.08185   0.00000  Uiso   1.00
O7     O     0.51496   0.53620   0.14524   0.00000  Uiso   1.00
C8     C     0.52909   0.51971   0.89281   0.00000  Uiso   1.00
C9     C     0.45877   0.52859  -0.00660   0.00000  Uiso   1.00
C10    C     0.53144   0.60174   1.03345   0.00000  Uiso   1.00
C11    C     0.49915   0.42850   0.00277   0.00000  Uiso   1.00
C12    C     0.56982   0.50141   1.03933   0.00000  Uiso   1.00
C13    C     0.49806   0.50863   0.13965   0.00000  Uiso   1.00
O14    O     0.57013   0.52717   0.05912   0.00000  Uiso   1.00
O15    O     0.54665   0.48235   1.00940   0.00000  Uiso   1.00
O16    O     0.47308   0.43291   0.00111   0.00000  Uiso   1.00
O17    O     0.52436   0.45300   0.99491   0.00000  Uiso   1.00
O18    O     0.53147   0.53204   0.95031   0.00000  Uiso   1.00
O19    O     0.51229   0.49205   0.88842   0.00000  Uiso   1.00
Pr20   Pr    0.98323   0.46531   1.00889   0.00000  Uiso   1.00
Pr21   Pr    0.03164   0.53507  -0.01377   0.00000  Uiso   1.00
O22    O     0.98863   0.53374  -0.06708   0.00000  Uiso   1.00
O23    O     0.95343   0.48333   0.94914   0.00000  Uiso   1.00
O24    O     0.93870   0.42792   0.04993   0.00000  Uiso   1.00
O25    O     0.96815   0.41440   0.98872   0.00000  Uiso   1.00
O26    O     0.02760   0.48896   0.95086   0.00000  Uiso   1.00
O27    O     0.98502   0.46548   0.90577   0.00000  Uiso   1.00
C28    C     0.00173   0.51928   0.09700   0.00000  Uiso   1.00
C29    C     0.96109   0.51109   0.92714   0.00000  Uiso   1.00
C30    C     0.94346   0.40589   0.02331   0.00000  Uiso   1.00
C31    C     0.07107   0.59470   0.97317   0.00000  Uiso   1.00
C32    C     0.05391   0.48927   0.06778   0.00000  Uiso   1.00
C33    C     0.01305   0.48074   0.89793   0.00000  Uiso   1.00
O34    O     0.02640   0.46659   1.06185   0.00000  Uiso   1.00
O35    O     0.06142   0.51709   0.04616   0.00000  Uiso   1.00
O36    O     0.07618   0.57292   0.94630   0.00000  Uiso   1.00
O37    O     0.04615   0.58587   0.00715   0.00000  Uiso   1.00
O38    O     0.98731   0.51138   0.04399   0.00000  Uiso   1.00
O39    O     0.02979   0.53460   0.08947   0.00000  Uiso   1.00
Pr40   Pr    0.53158   0.02927  -0.04411   0.00000  Uiso   1.00
Pr41   Pr    0.45830   0.96683   0.95663   0.00000  Uiso   1.00
O42    O     0.45468   0.01573  -0.03298   0.00000  Uiso   1.00
O43    O     0.50156   0.05706  -0.02295   0.00000  Uiso   1.00
O44    O     0.56892   0.07110   0.91030   0.00000  Uiso   1.00
O45    O     0.57821   0.05920  -0.00258   0.00000  Uiso   1.00
O46    O     0.50055   0.98823   0.01810   0.00000  Uiso   1.00
O47    O     0.51198   0.03371   0.05092   0.00000  Uiso   1.00
C48    C     0.49235   0.99161   0.85081   0.00000  Uiso   1.00
C49    C     0.47086   0.04497  -0.02503   0.00000  Uiso   1.00
C50    C     0.58836   0.07708   0.95236   0.00000  Uiso   1.00
C51    C     0.43572   0.90934   0.00682   0.00000  Uiso   1.00
C52    C     0.53179   0.96815   0.94902   0.00000  Uiso   1.00
C53    C     0.49686   0.00684   0.06229   0.00000  Uiso   1.00
O54    O     0.55174   0.99391   0.92943   0.00000  Uiso   1.00
O55    O     0.50885   0.96861   0.98456   0.00000  Uiso   1.00
O56    O     0.42881   0.93127   0.02730   0.00000  Uiso   1.00
O57    O     0.45430   0.91683   0.96164   0.00000  Uiso   1.00
O58    O     0.48860   0.00829   0.89709   0.00000  Uiso   1.00
O59    O     0.47790   0.96464   0.86026   0.00000  Uiso   1.00
C60    C     0.48175   0.46902   0.28952   0.00000  Uiso   1.00
C61    C     0.45253   0.44453   0.27976   0.00000  Uiso   1.00
C62    C     0.43781   0.44203   0.22573   0.00000  Uiso   1.00
C63    C     0.45240   0.46350   0.18055   0.00000  Uiso   1.00
C64    C     0.48143   0.48828   0.18973   0.00000  Uiso   1.00
C65    C     0.49574   0.49133   0.24475   0.00000  Uiso   1.00
C66    C     0.49912   0.47001   0.34533   0.00000  Uiso   1.00
H67    H     0.44139   0.42708   0.31359   0.00000  Uiso   1.00
H68    H     0.41537   0.42304   0.21836   0.00000  Uiso   1.00
H69    H     0.44111   0.46075   0.13830   0.00000  Uiso   1.00
H70    H     0.51858   0.50993   0.25166   0.00000  Uiso   1.00
H71    H     0.48745   0.44794   0.37053   0.00000  Uiso   1.00
H72    H     0.52395   0.47259   0.33320   0.00000  Uiso   1.00
C73    C     0.54192   0.55455   0.73931   0.00000  Uiso   1.00
C74    C     0.52820   0.53494   0.78803   0.00000  Uiso   1.00
C75    C     0.52333   0.55209   0.68455   0.00000  Uiso   1.00
C76    C     0.52175   0.54134   0.58045   0.00000  Uiso   1.00
C77    C     0.53183   0.52311   0.53372   0.00000  Uiso   1.00
C78    C     0.57276   0.57737   0.74307   0.00000  Uiso   1.00
C79    C     0.58919   0.58120   0.79558   0.00000  Uiso   1.00
C80    C     0.54453   0.53898   0.84094   0.00000  Uiso   1.00
H81    H     0.58382   0.59246   0.70564   0.00000  Uiso   1.00
H82    H     0.61289   0.59895   0.79838   0.00000  Uiso   1.00
H83    H     0.58772   0.56586   0.88544   0.00000  Uiso   1.00
H84    H     0.50443   0.51719   0.78547   0.00000  Uiso   1.00
H85    H     0.52310   0.57519   0.67435   0.00000  Uiso   1.00
C86    C     0.51820   0.49793   0.43430   0.00000  Uiso   1.00
C87    C     0.51345   0.52089   0.47749   0.00000  Uiso   1.00
H88    H     0.49539   0.53026   0.58787   0.00000  Uiso   1.00
H89    H     0.55784   0.53473   0.52338   0.00000  Uiso   1.00
H90    H     0.52672   0.49954   0.55148   0.00000  Uiso   1.00
H91    H     0.52826   0.56548   0.56457   0.00000  Uiso   1.00
H92    H     0.49822   0.53555   0.69207   0.00000  Uiso   1.00
H93    H     0.54388   0.50590   0.42077   0.00000  Uiso   1.00
H94    H     0.51045   0.47504   0.45689   0.00000  Uiso   1.00
N95    N     0.49926   0.49579   0.38223   0.00000  Uiso   1.00
N96    N     0.53803   0.54148   0.63525   0.00000  Uiso   1.00
C97    C     0.57493   0.56243   0.84475   0.00000  Uiso   1.00
C98    C     0.02936   0.48173   0.73154   0.00000  Uiso   1.00
C99    C     0.06256   0.49798   0.72881   0.00000  Uiso   1.00
C100   C     0.07908   0.50952   0.78030   0.00000  Uiso   1.00
C101   C     0.06276   0.50452   0.83521   0.00000  Uiso   1.00
C102   C     0.02964   0.48790   0.83918   0.00000  Uiso   1.00
C103   C     1.01298   0.47683   0.78700   0.00000  Uiso   1.00
C104   C     1.01204   0.46794   0.67604   0.00000  Uiso   1.00
H105   H     0.07567   0.50151   0.68675   0.00000  Uiso   1.00
H106   H     0.10469   0.52196   0.77772   0.00000  Uiso   1.00
H107   H     0.07611   0.51314   0.87472   0.00000  Uiso   1.00
H108   H     0.98748   0.46365   0.78969   0.00000  Uiso   1.00
H109   H     1.02061   0.44989   0.66020   0.00000  Uiso   1.00
H110   H     0.98591   0.45675   0.68568   0.00000  Uiso   1.00
C111   C    -0.01525   0.51538   0.26347   0.00000  Uiso   1.00
C112   C     0.00137   0.52163   0.20819   0.00000  Uiso   1.00
C113   C     0.00169   0.52813   0.31982   0.00000  Uiso   1.00
C114   C     0.00939   0.51585   0.42011   0.00000  Uiso   1.00
C115   C    -0.00045   0.49012   0.46682   0.00000  Uiso   1.00
C116   C     0.95164   0.49858   0.26545   0.00000  Uiso   1.00
C117   C     0.93543   0.48782   0.21337   0.00000  Uiso   1.00
C118   C    -0.01500   0.51128   0.15549   0.00000  Uiso   1.00
H119   H     0.93835   0.49399   0.30738   0.00000  Uiso   1.00
H120   H     0.90989   0.47487   0.21537   0.00000  Uiso   1.00
H121   H     0.93886   0.48597   0.11874   0.00000  Uiso   1.00
H122   H     0.02681   0.53514   0.20612   0.00000  Uiso   1.00
H123   H    -0.00746   0.54545   0.33750   0.00000  Uiso   1.00
C124   C     0.00427   0.47806   0.57454   0.00000  Uiso   1.00
C125   C     0.01343   0.50307   0.52659   0.00000  Uiso   1.00
H126   H     0.03585   0.52618   0.41487   0.00000  Uiso   1.00
H127   H     0.97309   0.47960   0.47155   0.00000  Uiso   1.00
H128   H     0.00834   0.47203   0.45236   0.00000  Uiso   1.00
H129   H     0.00076   0.53397   0.43539   0.00000  Uiso   1.00
H130   H     0.02782   0.53993   0.31077   0.00000  Uiso   1.00
H131   H     0.97786   0.46750   0.58037   0.00000  Uiso   1.00
H132   H     0.01328   0.46007   0.56027   0.00000  Uiso   1.00
N133   N     0.01844   0.49187   0.63031   0.00000  Uiso   1.00
N134   N    -0.00445   0.50323   0.36334   0.00000  Uiso   1.00
C135   C     0.95196   0.49413   0.15867   0.00000  Uiso   1.00
C136   C     0.47173   0.97769   0.21819   0.00000  Uiso   1.00
C137   C     0.43901   0.97173   0.21801   0.00000  Uiso   1.00
C138   C     0.42559   0.97799   0.16752   0.00000  Uiso   1.00
C139   C     0.44463   0.98985   0.11666   0.00000  Uiso   1.00
C140   C     0.47724   0.99560   0.11623   0.00000  Uiso   1.00
C141   C     0.49083   0.98974   0.16703   0.00000  Uiso   1.00
C142   C     0.48582   0.97074   0.27261   0.00000  Uiso   1.00
H143   H     0.42396   0.96232   0.25707   0.00000  Uiso   1.00
H144   H     0.40040   0.97357   0.16781   0.00000  Uiso   1.00
H145   H     0.43393   0.99445   0.07769   0.00000  Uiso   1.00
H146   H     0.51611   0.99440   0.16648   0.00000  Uiso   1.00
H147   H     0.47357   0.94564   0.28282   0.00000  Uiso   1.00
H148   H     0.51173   0.97611   0.26513   0.00000  Uiso   1.00
C149   C     0.50810   0.01830   0.69221   0.00000  Uiso   1.00
C150   C     0.49222   0.00353   0.74455   0.00000  Uiso   1.00
C151   C     0.48974   0.01913   0.63894   0.00000  Uiso   1.00
C152   C     0.48754   0.00980   0.53455   0.00000  Uiso   1.00
C153   C     0.49415   0.99028   0.48607   0.00000  Uiso   1.00
C154   C     0.54145   0.03339   0.69056   0.00000  Uiso   1.00
C155   C     0.55864   0.03422   0.74098   0.00000  Uiso   1.00
C156   C     0.50943   0.00472   0.79527   0.00000  Uiso   1.00
H157   H     0.55403   0.04487   0.65043   0.00000  Uiso   1.00
H158   H     0.58432   0.04606   0.73962   0.00000  Uiso   1.00
H159   H     0.55618   0.02165   0.83246   0.00000  Uiso   1.00
H160   H     0.46645  -0.00803   0.74644   0.00000  Uiso   1.00
H161   H     0.49585   0.04378   0.62679   0.00000  Uiso   1.00
C162   C     0.49150   0.98035   0.37668   0.00000  Uiso   1.00
C163   C     0.48493  -0.00101   0.42677   0.00000  Uiso   1.00
H164   H     0.46149   0.00463   0.53765   0.00000  Uiso   1.00
H165   H     0.51994   0.99440   0.48444   0.00000  Uiso   1.00
H166   H     0.47996   0.96543   0.49587   0.00000  Uiso   1.00
H167   H     0.50077   0.03470   0.52347   0.00000  Uiso   1.00
H168   H     0.46360   0.00815   0.64870   0.00000  Uiso   1.00
H169   H     0.51750   0.98542   0.37334   0.00000  Uiso   1.00
H170   H     0.47795   0.95533   0.38612   0.00000  Uiso   1.00
N171   N     0.48119   0.98915   0.32175   0.00000  Uiso   1.00
N172   N     0.49826   0.00263   0.59063   0.00000  Uiso   1.00
C173   C     0.54265   0.02028   0.79348   0.00000  Uiso   1.00
C174   C     0.37596   0.52600   0.96551   0.00000  Uiso   1.00
C175   C     0.38355   0.55633   0.94509   0.00000  Uiso   1.00
C176   C     0.41518   0.57736   0.94181   0.00000  Uiso   1.00
C177   C     0.43953   0.56827   0.95848   0.00000  Uiso   1.00
C178   C     0.43249   0.53797   0.97839   0.00000  Uiso   1.00
C179   C     0.40063   0.51676   0.98141   0.00000  Uiso   1.00
C180   C     0.34164   0.50392   0.96975   0.00000  Uiso   1.00
H181   H     0.36487   0.56367   0.93192   0.00000  Uiso   1.00
H182   H     0.42089   0.60070   0.92599   0.00000  Uiso   1.00
H183   H     0.46399   0.58465   0.95414   0.00000  Uiso   1.00
H184   H     0.39509   0.49330   0.99649   0.00000  Uiso   1.00
H185   H     0.33215   0.50059   0.92440   0.00000  Uiso   1.00
H186   H     0.33946   0.48108   0.98746   0.00000  Uiso   1.00
C187   C     0.13428   0.49555   0.12254   0.00000  Uiso   1.00
C188   C     0.11078   0.50271   0.09469   0.00000  Uiso   1.00
C189   C     0.16902   0.51581   0.11402   0.00000  Uiso   1.00
C190   C     0.21976   0.51602   0.07926   0.00000  Uiso   1.00
C191   C     0.23584   0.49859   1.04183   0.00000  Uiso   1.00
C192   C     0.12514   0.46885   0.15792   0.00000  Uiso   1.00
C193   C     0.09302   0.44944   0.16503   0.00000  Uiso   1.00
C194   C     0.07838   0.48298   0.10085   0.00000  Uiso   1.00
H195   H     0.14295   0.46305   0.17981   0.00000  Uiso   1.00
H196   H     0.08613   0.42886   0.19233   0.00000  Uiso   1.00
H197   H     0.04506   0.44070   0.14231   0.00000  Uiso   1.00
H198   H     0.11789   0.52320   0.06696   0.00000  Uiso   1.00
H199   H     0.17942   0.52238   0.15834   0.00000  Uiso   1.00
C200   C     0.28940   0.49917   1.00581   0.00000  Uiso   1.00
C201   C     0.27202   0.51535   1.04304   0.00000  Uiso   1.00
H202   H     0.22589   0.53942   0.05965   0.00000  Uiso   1.00
H203   H     0.22881   0.47477   1.05976   0.00000  Uiso   1.00
H204   H     0.22802   0.49726   0.99548   0.00000  Uiso   1.00
H205   H     0.22858   0.51833   0.12507   0.00000  Uiso   1.00
H206   H     0.17203   0.53732   0.08955   0.00000  Uiso   1.00
H207   H     0.28336   0.47544   1.02352   0.00000  Uiso   1.00
H208   H     0.28183   0.49802   0.95928   0.00000  Uiso   1.00
N209   N     0.32369   0.51694   1.00878   0.00000  Uiso   1.00
N210   N     0.18519   0.49889   0.08063   0.00000  Uiso   1.00
C211   C     0.06976   0.45631   0.13651   0.00000  Uiso   1.00
C212   C     0.87184   0.33256   0.06279   0.00000  Uiso   1.00
C213   C     0.88549   0.31050   0.05511   0.00000  Uiso   1.00
C214   C     0.91713   0.31942   0.03506   0.00000  Uiso   1.00
C215   C     0.93568   0.35048   0.02346   0.00000  Uiso   1.00
C216   C     0.92287   0.37307   0.03286   0.00000  Uiso   1.00
C217   C     0.89081   0.36399   0.05243   0.00000  Uiso   1.00
C218   C     0.83730   0.32213   0.08237   0.00000  Uiso   1.00
H219   H     0.87141   0.28628   0.06391   0.00000  Uiso   1.00
H220   H     0.92736   0.30224   0.02864   0.00000  Uiso   1.00
H221   H     0.96029   0.35690   0.00846   0.00000  Uiso   1.00
H222   H     0.88062   0.38121   0.05923   0.00000  Uiso   1.00
H223   H     0.83504   0.31316   0.12844   0.00000  Uiso   1.00
H224   H     0.82914   0.34163   0.08199   0.00000  Uiso   1.00
C225   C     0.67098   0.13319   0.99207   0.00000  Uiso   1.00
C226   C     0.63963   0.11091   0.99759   0.00000  Uiso   1.00
C227   C     0.69181   0.14257   1.04494   0.00000  Uiso   1.00
C228   C     0.73367   0.19395   1.04832   0.00000  Uiso   1.00
C229   C     0.74069   0.22764   0.06366   0.00000  Uiso   1.00
C230   C     0.68312   0.14604   0.93614   0.00000  Uiso   1.00
C231   C     0.66413   0.13728   0.88680   0.00000  Uiso   1.00
C232   C     0.62051   0.10184   0.94786   0.00000  Uiso   1.00
H233   H     0.70737   0.16264   0.93043   0.00000  Uiso   1.00
H234   H     0.67376   0.14718   0.84380   0.00000  Uiso   1.00
H235   H     0.61881   0.10855   0.85349   0.00000  Uiso   1.00
H236   H     0.63025   0.10051   1.04041   0.00000  Uiso   1.00
H237   H     0.71338   0.13719   1.03631   0.00000  Uiso   1.00
C238   C     0.78566   0.28075   0.06645   0.00000  Uiso   1.00
C239   C     0.77522   0.24745   1.04572   0.00000  Uiso   1.00
H240   H     0.74795   0.18524   1.07681   0.00000  Uiso   1.00
H241   H     0.72456   0.23591   0.03949   0.00000  Uiso   1.00
H242   H     0.73670   0.22949   0.11208   0.00000  Uiso   1.00
H243   H     0.74076   0.19250   1.00122   0.00000  Uiso   1.00
H244   H     0.67920   0.12877   1.08453   0.00000  Uiso   1.00
H245   H     0.76948   0.29129   0.04950   0.00000  Uiso   1.00
H246   H     0.78440   0.28071   0.11569   0.00000  Uiso   1.00
N247   N     0.81801   0.29789   0.04248   0.00000  Uiso   1.00
N248   N     0.69959   0.17535   1.05814   0.00000  Uiso   1.00
C249   C     0.63295   0.11541   0.89255   0.00000  Uiso   1.00
C250   C     0.88102   0.50625   0.87381   0.00000  Uiso   1.00
C251   C     0.89068   0.53179   0.83524   0.00000  Uiso   1.00
C252   C     0.92300   0.54997   0.82580   0.00000  Uiso   1.00
C253   C     0.94597   0.54296   0.85501   0.00000  Uiso   1.00
C254   C     0.93682   0.51740   0.89370   0.00000  Uiso   1.00
C255   C     0.90420   0.49891   0.90237   0.00000  Uiso   1.00
C256   C     0.84608   0.48761   0.88518   0.00000  Uiso   1.00
H257   H     0.87308   0.53769   0.81285   0.00000  Uiso   1.00
H258   H     0.93029   0.56971   0.79616   0.00000  Uiso   1.00
H259   H     0.97090   0.55753   0.84735   0.00000  Uiso   1.00
H260   H     0.89676   0.47936   0.93262   0.00000  Uiso   1.00
H261   H     0.83486   0.47953   0.84198   0.00000  Uiso   1.00
H262   H     0.84245   0.46703   0.91322   0.00000  Uiso   1.00
C263   C     0.65242   0.50122   0.05607   0.00000  Uiso   1.00
C264   C     0.62794   0.51120   0.04229   0.00000  Uiso   1.00
C265   C     0.68681   0.52074   0.04125   0.00000  Uiso   1.00
C266   C     0.73466   0.51801  -0.00352   0.00000  Uiso   1.00
C267   C     0.74712   0.49804   0.95781   0.00000  Uiso   1.00
C268   C     0.64455   0.47227   0.08346   0.00000  Uiso   1.00
C269   C     0.61274   0.45325   0.09574   0.00000  Uiso   1.00
C270   C     0.59591   0.49185   0.05401   0.00000  Uiso   1.00
H271   H     0.66308   0.46432   0.09485   0.00000  Uiso   1.00
H272   H     0.60685   0.43098   0.11682   0.00000  Uiso   1.00
H273   H     0.56396   0.44794   0.09109   0.00000  Uiso   1.00
H274   H     0.63367   0.53354   0.02144   0.00000  Uiso   1.00
H275   H     0.69985   0.52624   0.08327   0.00000  Uiso   1.00
C276   C     0.79698   0.49143   0.91954   0.00000  Uiso   1.00
C277   C     0.78349   0.51210   0.95344   0.00000  Uiso   1.00
H278   H     0.74210   0.54143  -0.02368   0.00000  Uiso   1.00
H279   H     0.73891   0.47450   0.97769   0.00000  Uiso   1.00
H280   H     0.73754   0.49630   0.91277   0.00000  Uiso   1.00
H281   H     0.74487   0.51996   0.04109   0.00000  Uiso   1.00
H282   H     0.68928   0.54281   0.01957   0.00000  Uiso   1.00
H283   H     0.79010   0.46907   0.94372   0.00000  Uiso   1.00
H284   H     0.78717   0.48729   0.87444   0.00000  Uiso   1.00
N285   N     0.83167   0.50703   0.91526   0.00000  Uiso   1.00
N286   N     0.69985   0.50347   0.00135   0.00000  Uiso   1.00
C287   C     0.58852   0.46288   0.08079   0.00000  Uiso   1.00
C288   C     0.37844   0.83328   0.07196   0.00000  Uiso   1.00
C289   C     0.39768   0.81599   0.06965   0.00000  Uiso   1.00
C290   C     0.42918   0.82938   0.04838   0.00000  Uiso   1.00
C291   C     0.44168   0.86001   0.02851   0.00000  Uiso   1.00
C292   C     0.42302   0.87784   0.03167   0.00000  Uiso   1.00
C293   C     0.39149   0.86453   0.05432   0.00000  Uiso   1.00
C294   C     0.34372   0.81755   0.08924   0.00000  Uiso   1.00
H295   H     0.38801   0.79188   0.08292   0.00000  Uiso   1.00
H296   H     0.44357   0.81564   0.04616   0.00000  Uiso   1.00
H297   H     0.46585   0.86989   0.01047   0.00000  Uiso   1.00
H298   H     0.37671   0.87796   0.05521   0.00000  Uiso   1.00
H299   H     0.34145   0.80632   0.13331   0.00000  Uiso   1.00
H300   H     0.33227   0.83466   0.09236   0.00000  Uiso   1.00
C301   C     0.14407   0.66843   0.94529   0.00000  Uiso   1.00
C302   C     0.12458   0.63687   0.95186   0.00000  Uiso   1.00
C303   C     0.17956   0.67906   0.93485   0.00000  Uiso   1.00
C304   C     0.22979   0.71434   0.97210   0.00000  Uiso   1.00
C305   C     0.24415   0.73661   0.02255   0.00000  Uiso   1.00
C306   C     0.13022   0.69046   0.95018   0.00000  Uiso   1.00
C307   C     0.09763   0.68126   0.96310   0.00000  Uiso   1.00
C308   C     0.09174   0.62757   0.96509   0.00000  Uiso   1.00
H309   H     0.14483   0.71484   0.94487   0.00000  Uiso   1.00
H310   H     0.08718   0.69838   0.96735   0.00000  Uiso   1.00
H311   H     0.05323   0.64334   0.98100   0.00000  Uiso   1.00
H312   H     0.13505   0.61970   0.94809   0.00000  Uiso   1.00
H313   H     0.18620   0.69214   0.89227   0.00000  Uiso   1.00
C314   C     0.29443   0.77788   0.05936   0.00000  Uiso   1.00
C315   C     0.27980   0.75442   1.01095   0.00000  Uiso   1.00
H316   H     0.24095   0.69700   0.96908   0.00000  Uiso   1.00
H317   H     0.23211   0.75320   0.02643   0.00000  Uiso   1.00
H318   H     0.24025   0.72339   0.06472   0.00000  Uiso   1.00
H319   H     0.23447   0.72764   0.92979   0.00000  Uiso   1.00
H320   H     0.18693   0.65905   0.93174   0.00000  Uiso   1.00
H321   H     0.28226   0.79440   0.06199   0.00000  Uiso   1.00
H322   H     0.29141   0.76555   0.10243   0.00000  Uiso   1.00
N323   N     0.32827   0.79443   0.04447   0.00000  Uiso   1.00
N324   N     0.19545   0.69875   0.98410   0.00000  Uiso   1.00
C325   C     0.07850   0.65002   0.97104   0.00000  Uiso   1.00
C326   C     0.53475   0.88924   0.96836   0.00000  Uiso   1.00
C327   C     0.54516   0.88445   0.91137   0.00000  Uiso   1.00
C328   C     0.55122   0.90694   0.86717   0.00000  Uiso   1.00
C329   C     0.54720   0.93446   0.87973   0.00000  Uiso   1.00
C330   C     0.53612   0.93925   0.93606   0.00000  Uiso   1.00
C331   C     0.52961   0.91647   0.98008   0.00000  Uiso   1.00
C332   C     0.53103   0.86640   1.01739   0.00000  Uiso   1.00
H333   H     0.54927   0.86363   0.90168   0.00000  Uiso   1.00
H334   H     0.55941   0.90327   0.82329   0.00000  Uiso   1.00
H335   H     0.55223   0.95186   0.84534   0.00000  Uiso   1.00
H336   H     0.52150   0.92037   1.02389   0.00000  Uiso   1.00
H337   H     0.55337   0.86226   1.02129   0.00000  Uiso   1.00
H338   H     0.52735   0.87634   1.06042   0.00000  Uiso   1.00
C339   C     0.50445   0.66862   0.02241   0.00000  Uiso   1.00
C340   C     0.50386   0.63864   0.02925   0.00000  Uiso   1.00
C341   C     0.47356   0.67363   0.02528   0.00000  Uiso   1.00
C342   C     0.47518   0.72597   0.01690   0.00000  Uiso   1.00
C343   C     0.49007   0.75451   0.97722   0.00000  Uiso   1.00
C344   C     0.53404   0.69353   0.01456   0.00000  Uiso   1.00
C345   C     0.56230   0.68837   0.01164   0.00000  Uiso   1.00
C346   C     0.53228   0.63333   0.02645   0.00000  Uiso   1.00
H347   H     0.53544   0.71698   0.01037   0.00000  Uiso   1.00
H348   H     0.58491   0.70764   0.00487   0.00000  Uiso   1.00
H349   H     0.58373   0.65503   0.01508   0.00000  Uiso   1.00
H350   H     0.48124   0.61952   0.03730   0.00000  Uiso   1.00
H351   H     0.46789   0.67778   0.07205   0.00000  Uiso   1.00
C352   C     0.51007   0.81309   0.98039   0.00000  Uiso   1.00
C353   C     0.48822   0.78260   0.00894   0.00000  Uiso   1.00
H354   H     0.45020   0.72245   0.02998   0.00000  Uiso   1.00
H355   H     0.51539   0.75828   0.96688   0.00000  Uiso   1.00
H356   H     0.47719   0.75102   0.93521   0.00000  Uiso   1.00
H357   H     0.48949   0.72994   0.05740   0.00000  Uiso   1.00
H358   H     0.45376   0.65225   0.01130   0.00000  Uiso   1.00
H359   H     0.53515   0.81562   0.98572   0.00000  Uiso   1.00
H360   H     0.50550   0.81298   0.93242   0.00000  Uiso   1.00
N361   N     0.50298   0.83790   1.00907   0.00000  Uiso   1.00
N362   N     0.47517   0.69867  -0.01508   0.00000  Uiso   1.00
C363   C     0.56150   0.65846   0.01742   0.00000  Uiso   1.00
C364   C     0.47627   0.34492   0.04999   0.00000  Uiso   1.00
C365   C     0.50617   0.34265   0.04552   0.00000  Uiso   1.00
C366   C     0.53305   0.36769   0.02539   0.00000  Uiso   1.00
C367   C     0.53047   0.39537   0.01017   0.00000  Uiso   1.00
C368   C     0.50083   0.39831   0.01509   0.00000  Uiso   1.00
C369   C     0.47373   0.37289   0.03459   0.00000  Uiso   1.00
C370   C     0.44752   0.31771   0.07202   0.00000  Uiso   1.00
H371   H     0.50872   0.32149   0.05769   0.00000  Uiso   1.00
H372   H     0.55602   0.36572   0.02195   0.00000  Uiso   1.00
H373   H     0.55171   0.41457  -0.00504   0.00000  Uiso   1.00
H374   H     0.45084   0.37500   0.03883   0.00000  Uiso   1.00
H375   H     0.45125   0.31210   0.11826   0.00000  Uiso   1.00
H376   H     0.42604   0.32353   0.07359   0.00000  Uiso   1.00
C377   C     0.45170   0.11693   0.97450   0.00000  Uiso   1.00
C378   C     0.46891   0.09767   0.97318   0.00000  Uiso   1.00
C379   C     0.46808   0.15087   0.96129   0.00000  Uiso   1.00
C380   C     0.45799   0.19643   0.98585   0.00000  Uiso   1.00
C381   C     0.45285   0.21563   0.03667   0.00000  Uiso   1.00
C382   C     0.41854   0.10393   0.98480   0.00000  Uiso   1.00
C383   C     0.40284   0.07220   0.99426   0.00000  Uiso   1.00
C384   C     0.45314   0.06554   0.98115   0.00000  Uiso   1.00
H385   H     0.40484   0.11840   0.98504   0.00000  Uiso   1.00
H386   H     0.37727   0.06239   1.00235   0.00000  Uiso   1.00
H387   H     0.40707   0.02840   0.99855   0.00000  Uiso   1.00
H388   H     0.49439   0.10761   0.96360   0.00000  Uiso   1.00
H389   H     0.45965   0.15527   0.91790   0.00000  Uiso   1.00
C390   C     0.44624   0.26571   0.05965   0.00000  Uiso   1.00
C391   C     0.44825   0.24368   1.01159   0.00000  Uiso   1.00
H392   H     0.48009   0.21056   0.96008   0.00000  Uiso   1.00
H393   H     0.43128   0.20148   0.06364   0.00000  Uiso   1.00
H394   H     0.47399   0.22324   0.06502   0.00000  Uiso   1.00
H395   H     0.43726   0.18969   0.95649   0.00000  Uiso   1.00
H396   H     0.49434   0.15785   0.95690   0.00000  Uiso   1.00
H397   H     0.42577   0.25360   0.09071   0.00000  Uiso   1.00
H398   H     0.46874   0.27378   0.08420   0.00000  Uiso   1.00
N399   N     0.44169   0.29167   0.03156   0.00000  Uiso   1.00
N400   N     0.46090   0.16864   1.00920   0.00000  Uiso   1.00
C401   C     0.41991   0.05302   0.99213   0.00000  Uiso   1.00
loop_
_geom_bond_atom_site_label_1
_geom_bond_atom_site_label_2
_geom_bond_distance
_geom_bond_site_symmetry_2
_ccdc_geom_bond_type
Pr0    O3      2.338   .     S
Pr0    O5      2.279   .     S
Pr0    O6      2.256   .     S
Pr0    O7      2.266   .     S
Pr0    O14     2.276   .     S
Pr0    O4      2.277   1_554 S
Pr0    O18     2.283   1_554 S
Pr1    O2      2.282   .     S
Pr1    O15     2.341   .     S
Pr1    O17     2.267   .     S
Pr1    O18     2.263   .     S
Pr1    O19     2.246   .     S
Pr1    O6      2.263   1_556 S
Pr1    O16     2.293   1_556 S
O2     C9      1.285   1_556 A
O3     C9      1.297   .     A
O4     C10     1.277   .     A
O4     Pr0     2.277   1_556 S
O5     C10     1.285   1_554 A
O6     C13     1.404   .     S
O6     Pr1     2.263   1_554 S
O7     C13     1.232   .     D
C8     O18     1.410   .     S
C8     O19     1.231   .     D
C8     C80     1.467   .     S
C9     O2      1.285   1_554 A
C9     C178    1.473   1_554 S
C10    O5      1.285   1_556 A
C10    C346    1.477   1_556 S
C11    O16     1.281   .     A
C11    C368    1.476   .     S
C11    O17     1.280   1_554 A
C12    O15     1.298   .     A
C12    O14     1.281   1_556 A
C12    C270    1.469   1_556 S
C13    C64     1.470   .     S
O14    C12     1.281   1_554 A
O16    Pr1     2.293   1_554 S
O17    C11     1.280   1_556 A
O18    Pr0     2.283   1_556 S
Pr20   O23     2.323   .     S
Pr20   O25     2.264   .     S
Pr20   O27     2.330   .     S
Pr20   O24     2.278   1_556 S
Pr20   O26     2.265   1_655 S
Pr20   O34     2.315   1_655 S
Pr20   O38     2.239   1_556 S
Pr21   O35     2.324   .     S
Pr21   O37     2.265   .     S
Pr21   O39     2.333   .     S
Pr21   O22     2.312   1_455 S
Pr21   O26     2.244   1_554 S
Pr21   O36     2.278   1_554 S
Pr21   O38     2.261   1_455 S
O22    Pr21    2.312   1_655 S
O22    C29     1.303   1_554 A
O23    C29     1.307   .     A
O24    C30     1.278   .     A
O24    Pr20    2.278   1_554 S
O25    C30     1.276   1_556 A
O26    C33     1.368   .     S
O26    Pr20    2.265   1_455 S
O26    Pr21    2.244   1_556 S
O27    C33     1.205   1_655 D
C28    O39     1.206   .     D
C28    C118    1.478   .     S
C28    O38     1.366   1_455 S
C29    C254    1.480   .     S
C29    O22     1.303   1_556 A
C30    C216    1.474   .     S
C30    O25     1.276   1_554 A
C31    O36     1.278   .     A
C31    C308    1.473   .     S
C31    O37     1.276   1_556 A
C32    O35     1.308   .     A
C32    C194    1.482   .     S
C32    O34     1.303   1_554 A
C33    C102    1.479   .     S
C33    O27     1.205   1_455 D
O34    Pr20    2.315   1_455 S
O34    C32     1.303   1_556 A
O36    Pr21    2.278   1_556 S
O37    C31     1.276   1_554 A
O38    Pr20    2.239   1_554 S
O38    Pr21    2.261   1_655 S
O38    C28     1.366   1_655 S
Pr40   O43     2.261   .     S
Pr40   O45     2.275   .     S
Pr40   O47     2.337   .     S
Pr40   O44     2.265   1_554 S
Pr40   O46     2.340   1_545 S
Pr40   O54     2.252   1_544 S
Pr40   O58     2.288   1_554 S
Pr41   O55     2.375   .     S
Pr41   O57     2.284   .     S
Pr41   O59     2.342   .     S
Pr41   O42     2.371   1_566 S
Pr41   O46     2.305   1_556 S
Pr41   O56     2.301   1_556 S
Pr41   O58     2.309   1_565 S
O42    C49     1.297   .     A
O42    Pr41    2.371   1_544 S
O43    C49     1.291   .     A
O44    C50     1.276   .     A
O44    Pr40    2.265   1_556 S
O45    C50     1.278   1_554 A
O46    Pr40    2.340   1_565 S
O46    Pr41    2.305   1_554 S
O46    C53     1.370   1_565 S
O47    C53     1.205   .     D
C48    O59     1.196   .     D
C48    O58     1.348   1_565 S
C48    C156    1.460   1_565 S
C49    C384    1.480   1_554 S
C50    C232    1.476   .     S
C50    O45     1.278   1_556 A
C51    O56     1.267   .     A
C51    C292    1.470   .     S
C51    O57     1.264   1_554 A
C52    O54     1.270   .     A
C52    O55     1.301   .     A
C52    C330    1.469   .     S
C53    O46     1.370   1_545 S
C53    C140    1.460   1_545 S
O54    Pr40    2.252   1_566 S
O56    Pr41    2.301   1_554 S
O57    C51     1.264   1_556 A
O58    Pr40    2.288   1_556 S
O58    Pr41    2.309   1_545 S
O58    C48     1.348   1_545 S
C60    C61     1.405   .     A
C60    C65     1.407   .     A
C60    C66     1.503   .     S
C61    C62     1.396   .     A
C61    H67     1.083   .     S
C62    C63     1.396   .     A
C62    H68     1.083   .     S
C63    C64     1.403   .     A
C63    H69     1.083   .     S
C64    C65     1.405   .     A
C65    H70     1.084   .     S
C66    H71     1.113   .     S
C66    H72     1.113   .     S
C66    N95     1.463   .     S
C73    C74     1.404   .     A
C73    C75     1.502   .     S
C73    C78     1.404   .     A
C74    C80     1.403   .     A
C74    H84     1.084   .     S
C75    H85     1.113   .     S
C75    H92     1.113   .     S
C75    N96     1.462   .     S
C76    C77     1.522   .     S
C76    H88     1.114   .     S
C76    H91     1.112   .     S
C76    N96     1.464   .     S
C77    C87     1.526   .     S
C77    H89     1.112   .     S
C77    H90     1.113   .     S
C78    C79     1.398   .     A
C78    H81     1.083   .     S
C79    H82     1.082   .     S
C79    C97     1.398   .     A
C80    C97     1.401   .     A
H83    C97     1.083   .     S
C86    C87     1.520   .     S
C86    H93     1.112   .     S
C86    H94     1.114   .     S
C86    N95     1.463   .     S
C98    C99     1.404   .     A
C98    C103    1.409   1_455 A
C98    C104    1.510   1_455 S
C99    C100    1.397   .     A
C99    H105    1.083   .     S
C100   C101    1.397   .     A
C100   H106    1.083   .     S
C101   C102    1.403   .     A
C101   H107    1.083   .     S
C102   C103    1.410   1_455 A
C103   H108    1.083   .     S
C103   C98     1.409   1_655 A
C103   C102    1.410   1_655 A
C104   H109    1.113   .     S
C104   H110    1.113   .     S
C104   C98     1.510   1_655 S
C104   N133    1.468   1_655 S
C111   C112    1.410   .     A
C111   C113    1.509   .     S
C111   C116    1.404   1_455 A
C112   C118    1.409   .     A
C112   H122    1.083   .     S
C113   H123    1.113   .     S
C113   H130    1.113   .     S
C113   N134    1.467   .     S
C114   C115    1.529   .     S
C114   H126    1.113   .     S
C114   H129    1.114   .     S
C114   N134    1.467   .     S
C115   C125    1.532   .     S
C115   H128    1.112   .     S
C115   H127    1.112   1_455 S
C116   C117    1.397   .     A
C116   H119    1.083   .     S
C116   C111    1.404   1_655 A
C117   H120    1.083   .     S
C117   C135    1.397   .     A
C118   C135    1.404   1_455 A
H121   C135    1.083   .     S
C124   C125    1.527   .     S
C124   H132    1.113   .     S
C124   N133    1.466   .     S
C124   H131    1.112   1_455 S
H127   C115    1.112   1_655 S
H131   C124    1.112   1_655 S
N133   C104    1.468   1_455 S
C135   C118    1.404   1_655 A
C136   C137    1.405   .     A
C136   C141    1.404   .     A
C136   C142    1.500   .     S
C137   C138    1.397   .     A
C137   H143    1.083   .     S
C138   C139    1.396   .     A
C138   H144    1.082   .     S
C139   C140    1.401   .     A
C139   H145    1.083   .     S
C140   C141    1.400   .     A
C140   C53     1.460   1_565 S
C141   H146    1.084   .     S
C142   H147    1.113   .     S
C142   H148    1.113   .     S
C142   N171    1.462   .     S
C149   C150    1.403   .     A
C149   C151    1.498   .     S
C149   C154    1.404   .     A
C150   C156    1.399   .     A
C150   H160    1.084   .     S
C151   H161    1.114   .     S
C151   H168    1.113   .     S
C151   N172    1.461   .     S
C152   H164    1.114   .     S
C152   H167    1.114   .     S
C152   N172    1.460   .     S
C152   C153    1.519   1_545 S
C153   H165    1.112   .     S
C153   H166    1.112   .     S
C153   C152    1.519   1_565 S
C153   C163    1.522   1_565 S
C154   C155    1.396   .     A
C154   H157    1.083   .     S
C155   H158    1.082   .     S
C155   C173    1.396   .     A
C156   C173    1.401   .     A
C156   C48     1.460   1_545 S
H159   C173    1.080   .     S
C162   H169    1.112   .     S
C162   H170    1.113   .     S
C162   N171    1.459   .     S
C162   C163    1.517   1_565 S
C163   C153    1.522   1_545 S
C163   C162    1.517   1_545 S
C174   C175    1.405   .     A
C174   C179    1.407   .     A
C174   C180    1.504   .     S
C175   C176    1.395   .     A
C175   H181    1.083   .     S
C176   C177    1.394   .     A
C176   H182    1.083   .     S
C177   C178    1.404   .     A
C177   H183    1.082   .     S
C178   C179    1.405   .     A
C178   C9      1.473   1_556 S
C179   H184    1.084   .     S
C180   H185    1.113   .     S
C180   H186    1.113   .     S
C180   N209    1.465   .     S
C187   C188    1.406   .     A
C187   C189    1.503   .     S
C187   C192    1.403   .     A
C188   C194    1.408   .     A
C188   H198    1.084   .     S
C189   H199    1.113   .     S
C189   H206    1.113   .     S
C189   N210    1.464   .     S
C190   H202    1.114   .     S
C190   H205    1.113   .     S
C190   N210    1.463   .     S
C190   C191    1.526   1_554 S
C191   C201    1.526   .     S
C191   H203    1.112   .     S
C191   H204    1.112   .     S
C191   C190    1.526   1_556 S
C192   C193    1.396   .     A
C192   H195    1.083   .     S
C193   H196    1.083   .     S
C193   C211    1.397   .     A
C194   C211    1.407   .     A
H197   C211    1.083   .     S
C200   C201    1.523   .     S
C200   H207    1.112   .     S
C200   H208    1.113   .     S
C200   N209    1.461   .     S
C212   C213    1.404   .     A
C212   C217    1.407   .     A
C212   C218    1.505   .     S
C213   C214    1.394   .     A
C213   H219    1.083   .     S
C214   C215    1.394   .     A
C214   H220    1.081   .     S
C215   C216    1.404   .     A
C215   H221    1.083   .     S
C216   C217    1.408   .     A
C217   H222    1.083   .     S
C218   H223    1.112   .     S
C218   H224    1.112   .     S
C218   N247    1.466   .     S
C225   C226    1.407   .     A
C225   C227    1.507   .     S
C225   C230    1.404   .     A
C226   C232    1.406   .     A
C226   H236    1.083   .     S
C227   H237    1.114   .     S
C227   H244    1.111   .     S
C227   N248    1.469   .     S
C228   H240    1.113   .     S
C228   H243    1.111   .     S
C228   N248    1.466   .     S
C228   C229    1.527   1_556 S
C229   H241    1.112   .     S
C229   H242    1.112   .     S
C229   C228    1.527   1_554 S
C229   C239    1.526   1_554 S
C230   C231    1.395   .     A
C230   H233    1.081   .     S
C231   H234    1.082   .     S
C231   C249    1.395   .     A
C232   C249    1.404   .     A
H235   C249    1.083   .     S
C238   H245    1.111   .     S
C238   H246    1.113   .     S
C238   N247    1.464   .     S
C238   C239    1.523   1_554 S
C239   C229    1.526   1_556 S
C239   C238    1.523   1_556 S
C250   C251    1.403   .     A
C250   C255    1.406   .     A
C250   C256    1.503   .     S
C251   C252    1.396   .     A
C251   H257    1.083   .     S
C252   C253    1.396   .     A
C252   H258    1.083   .     S
C253   C254    1.406   .     A
C253   H259    1.083   .     S
C254   C255    1.408   .     A
C255   H260    1.084   .     S
C256   H261    1.113   .     S
C256   H262    1.113   .     S
C256   N285    1.464   .     S
C263   C264    1.408   .     A
C263   C265    1.503   .     S
C263   C268    1.405   .     A
C264   C270    1.405   .     A
C264   H274    1.084   .     S
C265   H275    1.113   .     S
C265   H282    1.112   .     S
C265   N286    1.465   .     S
C266   H278    1.113   .     S
C266   H281    1.113   .     S
C266   N286    1.463   .     S
C266   C267    1.526   1_554 S
C267   C277    1.526   .     S
C267   H279    1.112   .     S
C267   H280    1.112   .     S
C267   C266    1.526   1_556 S
C268   C269    1.395   .     A
C268   H271    1.083   .     S
C269   H272    1.082   .     S
C269   C287    1.394   .     A
C270   C287    1.403   .     A
C270   C12     1.469   1_554 S
H273   C287    1.083   .     S
C276   C277    1.523   .     S
C276   H283    1.113   .     S
C276   H284    1.113   .     S
C276   N285    1.461   .     S
C288   C289    1.403   .     A
C288   C293    1.407   .     A
C288   C294    1.501   .     S
C289   C290    1.393   .     A
C289   H295    1.083   .     S
C290   C291    1.396   .     A
C290   H296    1.080   .     S
C291   C292    1.402   .     A
C291   H297    1.081   .     S
C292   C293    1.404   .     A
C293   H298    1.083   .     S
C294   H299    1.113   .     S
C294   H300    1.113   .     S
C294   N323    1.464   .     S
C301   C302    1.407   .     A
C301   C303    1.505   .     S
C301   C306    1.404   .     A
C302   C308    1.407   .     A
C302   H312    1.083   .     S
C303   H313    1.113   .     S
C303   H320    1.112   .     S
C303   N324    1.464   .     S
C304   H316    1.113   .     S
C304   H319    1.114   .     S
C304   N324    1.463   .     S
C304   C305    1.526   1_556 S
C305   H317    1.112   .     S
C305   H318    1.112   .     S
C305   C304    1.526   1_554 S
C305   C315    1.524   1_554 S
C306   C307    1.395   .     A
C306   H309    1.083   .     S
C307   H310    1.082   .     S
C307   C325    1.395   .     A
C308   C325    1.404   .     A
H311   C325    1.084   .     S
C314   H321    1.113   .     S
C314   H322    1.112   .     S
C314   N323    1.459   .     S
C314   C315    1.524   1_554 S
C315   C305    1.524   1_556 S
C315   C314    1.524   1_556 S
C326   C327    1.404   .     A
C326   C331    1.406   .     A
C326   C332    1.505   .     S
C327   C328    1.399   .     A
C327   H333    1.082   .     S
C328   C329    1.398   .     A
C328   H334    1.084   .     S
C329   C330    1.402   .     A
C329   H335    1.084   .     S
C330   C331    1.403   .     A
C331   H336    1.084   .     S
C332   H337    1.112   .     S
C332   H338    1.111   .     S
C332   N361    1.465   .     S
C339   C340    1.405   .     A
C339   C341    1.510   .     S
C339   C344    1.407   .     A
C340   C346    1.406   .     A
C340   H350    1.083   .     S
C341   H351    1.114   .     S
C341   H358    1.112   .     S
C341   N362    1.469   .     S
C342   H354    1.113   .     S
C342   H357    1.114   .     S
C342   N362    1.466   .     S
C342   C343    1.526   1_554 S
C343   H355    1.112   .     S
C343   H356    1.111   .     S
C343   C342    1.526   1_556 S
C343   C353    1.525   1_556 S
C344   C345    1.396   .     A
C344   H347    1.081   .     S
C345   H348    1.083   .     S
C345   C363    1.396   .     A
C346   C363    1.404   .     A
C346   C10     1.477   1_554 S
H349   C363    1.083   .     S
C352   H359    1.111   .     S
C352   H360    1.111   .     S
C352   N361    1.464   .     S
C352   C353    1.523   1_556 S
C353   C343    1.525   1_554 S
C353   C352    1.523   1_554 S
C364   C365    1.404   .     A
C364   C369    1.407   .     A
C364   C370    1.504   .     S
C365   C366    1.394   .     A
C365   H371    1.080   .     S
C366   C367    1.394   .     A
C366   H372    1.083   .     S
C367   C368    1.407   .     A
C367   H373    1.083   .     S
C368   C369    1.404   .     A
C369   H374    1.084   .     S
C370   H375    1.114   .     S
C370   H376    1.110   .     S
C370   N399    1.467   .     S
C377   C378    1.405   .     A
C377   C379    1.501   .     S
C377   C382    1.403   .     A
C378   C384    1.406   .     A
C378   H388    1.084   .     S
C379   H389    1.114   .     S
C379   H396    1.111   .     S
C379   N400    1.466   .     S
C380   H392    1.113   .     S
C380   H395    1.114   .     S
C380   N400    1.463   .     S
C380   C381    1.522   1_556 S
C381   H393    1.112   .     S
C381   H394    1.112   .     S
C381   C380    1.522   1_554 S
C381   C391    1.525   1_554 S
C382   C383    1.394   .     A
C382   H385    1.083   .     S
C383   H386    1.082   .     S
C383   C401    1.396   .     A
C384   C401    1.408   .     A
C384   C49     1.480   1_556 S
H387   C401    1.083   .     S
C390   H397    1.111   .     S
C390   H398    1.112   .     S
C390   N399    1.463   .     S
C390   C391    1.519   1_554 S
C391   C381    1.525   1_556 S
C391   C390    1.519   1_556 S
