data_kag+N248+E59
_audit_creation_date              2025-01-21
_audit_creation_method            'Materials Studio'
_symmetry_space_group_name_H-M    'P1'
_symmetry_Int_Tables_number       1
_symmetry_cell_setting            triclinic
loop_
_symmetry_equiv_pos_as_xyz
  x,y,z
_cell_length_a                    44.0938
_cell_length_b                    47.3655
_cell_length_c                    20.8842
_cell_angle_alpha                 88.9412
_cell_angle_beta                  91.8372
_cell_angle_gamma                 128.3358
loop_
_atom_site_label
_atom_site_type_symbol
_atom_site_fract_x
_atom_site_fract_y
_atom_site_fract_z
_atom_site_U_iso_or_equiv
_atom_site_adp_type
_atom_site_occupancy
O0     O     0.55222   0.55249   0.92868   0.00000  Uiso   1.00
Yb1    Yb    0.49089   0.46482   0.96682   0.00000  Uiso   1.00
C2     C     0.46616   0.40688   0.02617   0.00000  Uiso   1.00
Yb3    Yb    0.52304   0.54332   0.02347   0.00000  Uiso   1.00
O4     O     0.52924   0.49662   0.89006   0.00000  Uiso   1.00
C5     C     0.45449   0.50420  -0.03948   0.00000  Uiso   1.00
C6     C     0.55139   0.53147   0.88674   0.00000  Uiso   1.00
O7     O     0.55617   0.58094   0.94821   0.00000  Uiso   1.00
C8     C     0.54760   0.60125   0.96449   0.00000  Uiso   1.00
O9     O     0.54931   0.48063   0.99414   0.00000  Uiso   1.00
O10    O     0.52805   0.50242   0.04035   0.00000  Uiso   1.00
O11    O     0.46236   0.45601   0.06224   0.00000  Uiso   1.00
O12    O     0.52523   0.58970   0.01177   0.00000  Uiso   1.00
O13    O     0.48554   0.51185   0.10126   0.00000  Uiso   1.00
C14    C     0.55892   0.50410   1.03063   0.00000  Uiso   1.00
C15    C     0.46385   0.47704   0.10506   0.00000  Uiso   1.00
O16    O     0.45718   0.42701   0.04154   0.00000  Uiso   1.00
O17    O     0.48921   0.41871   0.97977   0.00000  Uiso   1.00
O18    O     0.46483   0.52784  -0.00289   0.00000  Uiso   1.00
O19    O     0.48509   0.50545   0.94980   0.00000  Uiso   1.00
O20    O     1.01821   0.52326   0.90662   0.00000  Uiso   1.00
Yb21   Yb    0.03135   0.49217   0.04778   0.00000  Uiso   1.00
C22    C     0.07404   0.47915   0.09886   0.00000  Uiso   1.00
Yb23   Yb    0.98131   0.50711   0.98783   0.00000  Uiso   1.00
O24    O     0.05544   0.50805   0.94973   0.00000  Uiso   1.00
C25    C     0.94987   0.44471  -0.05489   0.00000  Uiso   1.00
C26    C     0.04382   0.51801   0.90168   0.00000  Uiso   1.00
O27    O     0.93075   0.48768   0.93062   0.00000  Uiso   1.00
C28    C     0.93628   0.51747   0.93692   0.00000  Uiso   1.00
O29    O     0.08005   0.54384   1.00912   0.00000  Uiso   1.00
O30    O     0.03150   0.53797   0.04954   0.00000  Uiso   1.00
O31    O    -0.01071   0.47064   0.12269   0.00000  Uiso   1.00
O32    O     0.96607   0.54152  -0.02942   0.00000  Uiso   1.00
O33    O     0.95132   0.48445   0.07670   0.00000  Uiso   1.00
C34    C     0.06729   0.55987   1.02143   0.00000  Uiso   1.00
C35    C    -0.03995   0.47132   0.12260   0.00000  Uiso   1.00
O36    O     0.07815   0.50775   0.11047   0.00000  Uiso   1.00
O37    O     0.04692   0.45742   1.05852   0.00000  Uiso   1.00
O38    O     0.93528   0.45959  -0.06685   0.00000  Uiso   1.00
O39    O     0.98213   0.46427   0.98593   0.00000  Uiso   1.00
O40    O     0.47046   0.01378   0.08529   0.00000  Uiso   1.00
Yb41   Yb    0.49191   0.96345   0.01550   0.00000  Uiso   1.00
C42    C     0.47029   0.90008   1.02370   0.00000  Uiso   1.00
Yb43   Yb    0.50966   0.03420   1.00662   0.00000  Uiso   1.00
O44    O     0.46020   0.95989   0.09702   0.00000  Uiso   1.00
C45    C     0.57119   0.03902   0.02458   0.00000  Uiso   1.00
C46    C     0.45515  -0.01692   0.11373   0.00000  Uiso   1.00
O47    O     0.54347   0.08880   0.03585   0.00000  Uiso   1.00
C48    C     0.52618   0.09507  -0.00527   0.00000  Uiso   1.00
O49    O     0.43458   0.92630  -0.02958   0.00000  Uiso   1.00
O50    O     0.47034   0.98436   0.95990   0.00000  Uiso   1.00
O51    O     0.52378   0.97874   0.92725   0.00000  Uiso   1.00
O52    O     0.49869   0.06791   0.96187   0.00000  Uiso   1.00
O53    O     0.53734   0.03447   0.91718   0.00000  Uiso   1.00
C54    C     0.43415   0.95111  -0.04631   0.00000  Uiso   1.00
C55    C     0.53790   0.00859   0.89599   0.00000  Uiso   1.00
O56    O     0.45204   0.90794   0.98880   0.00000  Uiso   1.00
O57    O     0.50039   0.92652   0.05362   0.00000  Uiso   1.00
O58    O     0.56790   0.05574   0.98295   0.00000  Uiso   1.00
O59    O     0.53744   0.01514   0.05779   0.00000  Uiso   1.00
C60    C     0.55596   0.54072   0.65058   0.00000  Uiso   1.00
C61    C     0.56114   0.53942   0.53492   0.00000  Uiso   1.00
H62    H     0.42958   0.41959   0.39177   0.00000  Uiso   1.00
C63    C     0.49824   0.50137   0.58291   0.00000  Uiso   1.00
C64    C     0.51554   0.51500   0.64344   0.00000  Uiso   1.00
N65    N     0.46146   0.47152   0.22246   0.00000  Uiso   1.00
N66    N     0.55805   0.53661   0.76992   0.00000  Uiso   1.00
O67    O     0.41027   0.42939   0.28029   0.00000  Uiso   1.00
O68    O     0.60702   0.58497   0.71721   0.00000  Uiso   1.00
H69    H     0.42151   0.42961   0.15770   0.00000  Uiso   1.00
H70    H     0.41824   0.46557   0.16252   0.00000  Uiso   1.00
H71    H     0.46167   0.44356   0.49628   0.00000  Uiso   1.00
H72    H     0.50616   0.52624   0.31058   0.00000  Uiso   1.00
H73    H     0.53846   0.54988   0.41488   0.00000  Uiso   1.00
H74    H     0.49110   0.49286   0.22160   0.00000  Uiso   1.00
H75    H     0.60969   0.57267   0.59912   0.00000  Uiso   1.00
H76    H     0.59551   0.57899   0.83609   0.00000  Uiso   1.00
H77    H     0.59925   0.54323   0.83576   0.00000  Uiso   1.00
H78    H     0.57931   0.54902   0.49353   0.00000  Uiso   1.00
H79    H     0.49702   0.50578   0.68417   0.00000  Uiso   1.00
H80    H     0.46701   0.48190   0.57897   0.00000  Uiso   1.00
H81    H     0.53232   0.51027   0.76701   0.00000  Uiso   1.00
C82    C     0.45346   0.44808   0.39597   0.00000  Uiso   1.00
C83    C     0.44424   0.45603   0.27993   0.00000  Uiso   1.00
C84    C     0.43868   0.45928   0.16212   0.00000  Uiso   1.00
C85    C     0.50241   0.49862   0.46379   0.00000  Uiso   1.00
C86    C     0.46573   0.47080   0.34224   0.00000  Uiso   1.00
C87    C     0.47162   0.46180   0.45595   0.00000  Uiso   1.00
C88    C     0.49679   0.50763   0.35004   0.00000  Uiso   1.00
C89    C     0.51508   0.52131   0.41007   0.00000  Uiso   1.00
C90    C     0.57848   0.55292   0.59546   0.00000  Uiso   1.00
C91    C     0.57508   0.55555   0.71447   0.00000  Uiso   1.00
C92    C     0.57866   0.54933   0.83211   0.00000  Uiso   1.00
C93    C     0.52084   0.51332   0.52801   0.00000  Uiso   1.00
C94    C    -0.02297   0.49812   0.34628   0.00000  Uiso   1.00
C95    C     0.97327   0.50659   0.45938   0.00000  Uiso   1.00
H96    H     0.01337   0.44112   0.64123   0.00000  Uiso   1.00
C97    C     0.01331   0.49101   0.42573   0.00000  Uiso   1.00
C98    C     0.00326   0.49140   0.36191   0.00000  Uiso   1.00
N99    N     0.03374   0.50876   0.78740   0.00000  Uiso   1.00
N100   N     0.95740   0.46764   0.23812   0.00000  Uiso   1.00
O101   O     1.04239   0.46856   0.75291   0.00000  Uiso   1.00
O102   O    -0.04617   0.51291   0.26066   0.00000  Uiso   1.00
H103   H     0.08143   0.51773   0.83899   0.00000  Uiso   1.00
H104   H     0.08183   0.55587   0.83117   0.00000  Uiso   1.00
H105   H    -0.00156   0.44555   0.52951   0.00000  Uiso   1.00
H106   H     1.03245   0.54017   0.68374   0.00000  Uiso   1.00
H107   H     1.01716   0.54415   0.57263   0.00000  Uiso   1.00
H108   H     0.01438   0.51446   0.78251   0.00000  Uiso   1.00
H109   H     0.94301   0.51233   0.38463   0.00000  Uiso   1.00
H110   H     0.91513   0.46364   0.17759   0.00000  Uiso   1.00
H111   H     0.91536   0.42592   0.17598   0.00000  Uiso   1.00
H112   H     0.96100   0.51208   0.49664   0.00000  Uiso   1.00
H113   H     0.01600   0.48635   0.32497   0.00000  Uiso   1.00
H114   H     0.03318   0.48526   0.43662   0.00000  Uiso   1.00
H115   H     0.96726   0.45338   0.25300   0.00000  Uiso   1.00
C116   C     0.01435   0.46376   0.62684   0.00000  Uiso   1.00
C117   C     0.03374   0.48789   0.73878   0.00000  Uiso   1.00
C118   C     0.06300   0.52633   0.83895   0.00000  Uiso   1.00
C119   C     0.00663   0.49517   0.54274   0.00000  Uiso   1.00
C120   C     0.02361   0.48998   0.67160   0.00000  Uiso   1.00
C121   C     0.00592   0.46633   0.56301   0.00000  Uiso   1.00
C122   C     1.02449   0.51894   0.65107   0.00000  Uiso   1.00
C123   C     1.01586   0.52138   0.58735   0.00000  Uiso   1.00
C124   C     0.96303   0.50677   0.39545   0.00000  Uiso   1.00
C125   C    -0.03739   0.49425   0.27963   0.00000  Uiso   1.00
C126   C     0.93425   0.45575   0.17876   0.00000  Uiso   1.00
C127   C    -0.00223   0.49784   0.47509   0.00000  Uiso   1.00
C128   C     0.53024   0.02496   0.66690   0.00000  Uiso   1.00
C129   C     0.53338   0.04346   0.55550   0.00000  Uiso   1.00
H130   H     0.46776   0.93424   0.36196   0.00000  Uiso   1.00
C131   C     0.48521   0.98122   0.58524   0.00000  Uiso   1.00
C132   C     0.49848   0.98955   0.64894   0.00000  Uiso   1.00
N133   N     0.45086   0.98552   0.22921   0.00000  Uiso   1.00
N134   N     0.53745   0.00870   0.77887   0.00000  Uiso   1.00
O135   O     0.42562   0.93032   0.26658   0.00000  Uiso   1.00
O136   O     0.57330   0.06612   0.74637   0.00000  Uiso   1.00
H137   H     0.40571   0.94348   0.16775   0.00000  Uiso   1.00
H138   H     0.41458   0.98558   0.16109   0.00000  Uiso   1.00
H139   H     0.49209   0.95340   0.47205   0.00000  Uiso   1.00
H140   H     0.46054   0.02083   0.34071   0.00000  Uiso   1.00
H141   H     0.48557   0.04023   0.45075   0.00000  Uiso   1.00
H142   H     0.47066   0.01328   0.23656   0.00000  Uiso   1.00
H143   H     0.57145   0.07942   0.63063   0.00000  Uiso   1.00
H144   H     0.58760   0.04438   0.83929   0.00000  Uiso   1.00
H145   H     0.56964  -0.00112   0.83740   0.00000  Uiso   1.00
H146   H     0.54762   0.06451   0.51966   0.00000  Uiso   1.00
H147   H     0.48363   0.96777   0.68294   0.00000  Uiso   1.00
H148   H     0.46111   0.95370   0.57281   0.00000  Uiso   1.00
H149   H     0.51441   0.98171   0.77075   0.00000  Uiso   1.00
C150   C     0.47151   0.95742   0.38067   0.00000  Uiso   1.00
C151   C     0.44522   0.96252   0.27712   0.00000  Uiso   1.00
C152   C     0.42898   0.97308   0.16812   0.00000  Uiso   1.00
C153   C     0.49027   0.99800   0.46988   0.00000  Uiso   1.00
C154   C     0.46254   0.97616   0.34234   0.00000  Uiso   1.00
C155   C     0.48531   0.96828   0.44363   0.00000  Uiso   1.00
C156   C     0.46816   0.00636   0.36829   0.00000  Uiso   1.00
C157   C     0.48222   0.01736   0.43138   0.00000  Uiso   1.00
C158   C     0.54698   0.05186   0.61918   0.00000  Uiso   1.00
C159   C     0.54790   0.03445   0.73323   0.00000  Uiso   1.00
C160   C     0.56056   0.01613   0.83737   0.00000  Uiso   1.00
C161   C     0.50287   0.00790   0.53783   0.00000  Uiso   1.00
C162   C     0.19205   0.49933   0.05698   0.00000  Uiso   1.00
C163   C     0.25752   0.51808   0.05472   0.00000  Uiso   1.00
H164   H     0.30536   0.47827   0.84489   0.00000  Uiso   1.00
C165   C     0.20771   0.47072   0.98385   0.00000  Uiso   1.00
C166   C     0.18095   0.47417   1.00825   0.00000  Uiso   1.00
N167   N     0.38876   0.48595   0.94989   0.00000  Uiso   1.00
N168   N     0.12496   0.47323   0.08862   0.00000  Uiso   1.00
O169   O     0.35000   0.46101   0.86218   0.00000  Uiso   1.00
O170   O     0.17594   0.52982   0.11522   0.00000  Uiso   1.00
H171   H     0.40286   0.45103   0.94134   0.00000  Uiso   1.00
H172   H     0.41860   0.48257   0.87624   0.00000  Uiso   1.00
H173   H     0.25890   0.48568   0.88353   0.00000  Uiso   1.00
H174   H     0.34070   0.47859   0.04071   0.00000  Uiso   1.00
H175   H     0.29555   0.48733   0.07847   0.00000  Uiso   1.00
H176   H     0.39407   0.49787  -0.00533   0.00000  Uiso   1.00
H177   H     0.24061   0.54161   0.11579   0.00000  Uiso   1.00
H178   H     0.11472   0.49030   0.17313   0.00000  Uiso   1.00
H179   H     0.07955   0.44397   0.15396   0.00000  Uiso   1.00
H180   H     0.28714   0.53552   0.07293   0.00000  Uiso   1.00
H181   H     0.15181   0.45714   0.98836   0.00000  Uiso   1.00
H182   H     0.19822   0.45063   0.94736   0.00000  Uiso   1.00
H183   H     0.11373   0.44989   1.06269   0.00000  Uiso   1.00
C184   C     0.30351   0.48019   0.89603   0.00000  Uiso   1.00
C185   C     0.35600   0.47456   0.91489   0.00000  Uiso   1.00
C186   C     0.41514   0.47911   0.92893   0.00000  Uiso   1.00
C187   C     0.27398   0.48749  -0.01611   0.00000  Uiso   1.00
C188   C     0.32779   0.47895   0.93937   0.00000  Uiso   1.00
C189   C     0.27687   0.48436   0.91804   0.00000  Uiso   1.00
C190   C     0.32407   0.48116   0.00542   0.00000  Uiso   1.00
C191   C     0.29780   0.48580   0.02732   0.00000  Uiso   1.00
C192   C     0.23090   0.52170   0.07886   0.00000  Uiso   1.00
C193   C     0.16383   0.50192   0.08788   0.00000  Uiso   1.00
C194   C     0.09848   0.47127   0.13258   0.00000  Uiso   1.00
C195   C     0.24609   0.49229   0.00749   0.00000  Uiso   1.00
C196   C     0.68714   0.14643   1.01018   0.00000  Uiso   1.00
C197   C     0.72376   0.20735   0.96792   0.00000  Uiso   1.00
H198   H     0.87816   0.31092   0.06945   0.00000  Uiso   1.00
C199   C     0.73960   0.19745   0.07370   0.00000  Uiso   1.00
C200   C     0.71000   0.16041   0.06683   0.00000  Uiso   1.00
N201   N     0.89590   0.38045  -0.05918   0.00000  Uiso   1.00
N202   N     0.63945   0.08327   1.04886   0.00000  Uiso   1.00
O203   O     0.91609   0.37942   0.04046   0.00000  Uiso   1.00
O204   O     0.65059   0.09581   0.94403   0.00000  Uiso   1.00
H205   H     0.95456   0.40293  -0.06725   0.00000  Uiso   1.00
H206   H     0.93426   0.41040   0.86569   0.00000  Uiso   1.00
H207   H     0.81856   0.24964   0.07795   0.00000  Uiso   1.00
H208   H     0.81675   0.34140   0.96397   0.00000  Uiso   1.00
H209   H     0.75644   0.28034   0.97470   0.00000  Uiso   1.00
H210   H     0.87318   0.36863   0.90678   0.00000  Uiso   1.00
H211   H     0.67671   0.16057   0.91731   0.00000  Uiso   1.00
H212   H     0.61457   0.03471   0.99742   0.00000  Uiso   1.00
H213   H     0.60510   0.02944   0.08161   0.00000  Uiso   1.00
H214   H     0.72924   0.22468   0.92791   0.00000  Uiso   1.00
H215   H     0.70627   0.14282   0.10498   0.00000  Uiso   1.00
H216   H     0.75697   0.20730   0.11765   0.00000  Uiso   1.00
H217   H     0.64379   0.09288   0.09555   0.00000  Uiso   1.00
C218   C     0.85155   0.30462   0.04981   0.00000  Uiso   1.00
C219   C     0.88973   0.36531   0.00036   0.00000  Uiso   1.00
C220   C     0.93471   0.40902  -0.08147   0.00000  Uiso   1.00
C221   C     0.78257   0.25978   0.02632   0.00000  Uiso   1.00
C222   C     0.85217   0.33055   0.01502   0.00000  Uiso   1.00
C223   C     0.81726   0.26951   0.05480   0.00000  Uiso   1.00
C224   C     0.81729   0.32164   0.98976   0.00000  Uiso   1.00
C225   C     0.78278   0.28663   0.99568   0.00000  Uiso   1.00
C226   C     0.69395   0.17044   0.96139   0.00000  Uiso   1.00
C227   C     0.65812   0.10705   0.99904   0.00000  Uiso   1.00
C228   C     0.60816   0.04484   1.03821   0.00000  Uiso   1.00
C229   C     0.74749   0.22129   1.02365   0.00000  Uiso   1.00
C230   C     0.68538   0.53834   1.00563   0.00000  Uiso   1.00
C231   C     0.75260   0.56339   0.99379   0.00000  Uiso   1.00
H232   H     0.79676   0.47355   0.06140   0.00000  Uiso   1.00
C233   C     0.70364   0.49921   0.00770   0.00000  Uiso   1.00
C234   C     0.67528   0.50379   0.01029   0.00000  Uiso   1.00
N235   N     0.89369   0.53269   0.95280   0.00000  Uiso   1.00
N236   N     0.62373   0.52171   1.04667   0.00000  Uiso   1.00
O237   O     0.84707   0.47637  -0.00703   0.00000  Uiso   1.00
O238   O     0.66184   0.57020   0.98400   0.00000  Uiso   1.00
H239   H     0.88665   0.49919  -0.12192   0.00000  Uiso   1.00
H240   H     0.92700   0.54619   0.87103   0.00000  Uiso   1.00
H241   H     0.74859   0.48309   0.07016   0.00000  Uiso   1.00
H242   H     0.85393   0.55545   0.91520   0.00000  Uiso   1.00
H243   H     0.80526   0.56421   0.92247   0.00000  Uiso   1.00
H244   H     0.90815   0.55980   0.96388   0.00000  Uiso   1.00
H245   H     0.73299   0.59490   0.99191   0.00000  Uiso   1.00
H246   H     0.60971   0.55762   1.04849   0.00000  Uiso   1.00
H247   H     0.59425   0.52782   0.11538   0.00000  Uiso   1.00
H248   H     0.78237   0.58691   0.98772   0.00000  Uiso   1.00
H249   H     0.64546   0.48014   0.01473   0.00000  Uiso   1.00
H250   H     0.69485   0.47221   0.01045   0.00000  Uiso   1.00
H251   H     0.61842   0.49915   0.06884   0.00000  Uiso   1.00
C252   C     0.79885   0.49342   0.03094   0.00000  Uiso   1.00
C253   C     0.85637   0.50587  -0.02128   0.00000  Uiso   1.00
C254   C     0.91010   0.52366   0.90542   0.00000  Uiso   1.00
C255   C     0.77280   0.52412   0.99648   0.00000  Uiso   1.00
C256   C     0.82886   0.51345  -0.01274   0.00000  Uiso   1.00
C257   C     0.77123   0.49882   0.03575   0.00000  Uiso   1.00
C258   C     0.83127   0.53966   0.94960   0.00000  Uiso   1.00
C259   C     0.80343   0.54479   0.95391   0.00000  Uiso   1.00
C260   C     0.72429   0.56797   0.99628   0.00000  Uiso   1.00
C261   C     0.65614   0.54421   1.01078   0.00000  Uiso   1.00
C262   C     0.59777   0.52984   1.06268   0.00000  Uiso   1.00
C263   C     0.74268   0.52899   0.99986   0.00000  Uiso   1.00
C264   C     0.15095   0.67859   0.05777   0.00000  Uiso   1.00
C265   C     0.21586   0.73610   0.06338   0.00000  Uiso   1.00
H266   H     0.25680   0.84269   0.86905   0.00000  Uiso   1.00
C267   C     0.17845   0.71745   0.96397   0.00000  Uiso   1.00
C268   C     0.14786   0.68561   0.99315   0.00000  Uiso   1.00
N269   N     0.36400   0.91113  -0.05548   0.00000  Uiso   1.00
N270   N     0.08450   0.61659   1.05688   0.00000  Uiso   1.00
O271   O     0.33245   0.89407   0.84583   0.00000  Uiso   1.00
O272   O     0.11725   0.64614   0.14954   0.00000  Uiso   1.00
H273   H     0.40162   0.94713   0.87131   0.00000  Uiso   1.00
H274   H     0.39891   0.96759  -0.05956   0.00000  Uiso   1.00
H275   H     0.20566   0.78328   0.91171   0.00000  Uiso   1.00
H276   H     0.34211   0.84439  -0.02027   0.00000  Uiso   1.00
H277   H     0.29155   0.78407   0.01990   0.00000  Uiso   1.00
H278   H     0.36076   0.90515  -0.00649   0.00000  Uiso   1.00
H279   H     0.18880   0.69950   0.14203   0.00000  Uiso   1.00
H280   H     0.11809   0.61165  -0.00612   0.00000  Uiso   1.00
H281   H     0.07314   0.59963   0.96087   0.00000  Uiso   1.00
H282   H     0.24127   0.75565   0.09251   0.00000  Uiso   1.00
H283   H     0.12156   0.66705   0.96516   0.00000  Uiso   1.00
H284   H     0.17498   0.72191   0.91413   0.00000  Uiso   1.00
H285   H     0.05724   0.60436   1.07569   0.00000  Uiso   1.00
C286   C     0.26456   0.82990   0.90164   0.00000  Uiso   1.00
C287   C     0.33366   0.88527   0.90055   0.00000  Uiso   1.00
C288   C     0.39938   0.94567  -0.07574   0.00000  Uiso   1.00
C289   C     0.24421   0.77869   0.96966   0.00000  Uiso   1.00
C290   C     0.30314   0.84815   0.92210   0.00000  Uiso   1.00
C291   C     0.23534   0.79574   0.92579   0.00000  Uiso   1.00
C292   C     0.31234   0.83102  -0.03551   0.00000  Uiso   1.00
C293   C     0.28329   0.79655  -0.01237   0.00000  Uiso   1.00
C294   C     0.18550   0.70407   0.09219   0.00000  Uiso   1.00
C295   C     0.11758   0.64649   0.09115   0.00000  Uiso   1.00
C296   C     0.08738   0.59843   1.00449   0.00000  Uiso   1.00
C297   C     0.21272   0.74339  -0.00109   0.00000  Uiso   1.00
C298   C     0.56384   0.71465  -0.02758   0.00000  Uiso   1.00
C299   C     0.57860   0.77270  -0.00701   0.00000  Uiso   1.00
H300   H     0.47999   0.80035   0.86536   0.00000  Uiso   1.00
C301   C     0.51844   0.72551   0.93898   0.00000  Uiso   1.00
C302   C     0.52875   0.70297   0.94255   0.00000  Uiso   1.00
N303   N     0.48529   0.85868   1.01377   0.00000  Uiso   1.00
N304   N     0.54897   0.65369   0.95706   0.00000  Uiso   1.00
O305   O     0.45653   0.82979   0.92098   0.00000  Uiso   1.00
O306   O     0.60805   0.70352  -0.00588   0.00000  Uiso   1.00
H307   H     0.42904   0.84437   1.00081   0.00000  Uiso   1.00
H308   H     0.44792   0.85369   0.08139   0.00000  Uiso   1.00
H309   H     0.50600   0.76767   0.86553   0.00000  Uiso   1.00
H310   H     0.52716   0.83809   0.05798   0.00000  Uiso   1.00
H311   H     0.55290   0.80576   0.05704   0.00000  Uiso   1.00
H312   H     0.50860   0.86983   0.04611   0.00000  Uiso   1.00
H313   H     0.61629   0.76014   0.01993   0.00000  Uiso   1.00
H314   H     0.59427   0.65261  -0.07142   0.00000  Uiso   1.00
H315   H     0.55123   0.62780   0.87852   0.00000  Uiso   1.00
H316   H     0.59864   0.79989   0.01165   0.00000  Uiso   1.00
H317   H     0.50908   0.67654   0.92121   0.00000  Uiso   1.00
H318   H     0.49073   0.71524   0.91711   0.00000  Uiso   1.00
H319   H     0.51923   0.63947   0.96127   0.00000  Uiso   1.00
C320   C     0.49613   0.80212   0.90749   0.00000  Uiso   1.00
C321   C     0.48004   0.83742   0.96384   0.00000  Uiso   1.00
C322   C     0.45583   0.86219   1.03080   0.00000  Uiso   1.00
C323   C     0.53109   0.78375   0.96158   0.00000  Uiso   1.00
C324   C     0.50095   0.82197   0.96166   0.00000  Uiso   1.00
C325   C     0.51089   0.78319   0.90757   0.00000  Uiso   1.00
C326   C     0.52263   0.82363   0.01477   0.00000  Uiso   1.00
C327   C     0.53762   0.80489   0.01451   0.00000  Uiso   1.00
C328   C     0.58877   0.74996  -0.00272   0.00000  Uiso   1.00
C329   C     0.57538   0.69098  -0.02432   0.00000  Uiso   1.00
C330   C     0.56219   0.63504  -0.07111   0.00000  Uiso   1.00
C331   C     0.54314   0.76057  -0.03584   0.00000  Uiso   1.00
C332   C     0.49399   0.17405   0.04069   0.00000  Uiso   1.00
C333   C     0.47835   0.20910   0.09274   0.00000  Uiso   1.00
H334   H     0.39854   0.25253   0.94952   0.00000  Uiso   1.00
C335   C     0.46919   0.20006   0.97792   0.00000  Uiso   1.00
C336   C     0.48210   0.17949   0.98149   0.00000  Uiso   1.00
N337   N     0.46333   0.35365   0.03292   0.00000  Uiso   1.00
N338   N     0.50940   0.13567  -0.00359   0.00000  Uiso   1.00
O339   O     0.40523   0.30749   0.98604   0.00000  Uiso   1.00
O340   O     0.53632   0.16557   0.08914   0.00000  Uiso   1.00
H341   H     0.41912   0.35581   1.06284   0.00000  Uiso   1.00
H342   H     0.46248   0.37998   0.11200   0.00000  Uiso   1.00
H343   H     0.41152   0.20944   0.96006   0.00000  Uiso   1.00
H344   H     0.49114   0.32242   0.08684   0.00000  Uiso   1.00
H345   H     0.50484   0.28009   0.09535   0.00000  Uiso   1.00
H346   H     0.49280   0.36578   0.03425   0.00000  Uiso   1.00
H347   H     0.50016   0.18493   0.14267   0.00000  Uiso   1.00
H348   H     0.56636   0.15180   0.01142   0.00000  Uiso   1.00
H349   H     0.54708   0.13895   0.93154   0.00000  Uiso   1.00
H350   H     0.47726   0.22046   0.13636   0.00000  Uiso   1.00
H351   H     0.48478   0.16976   0.93720   0.00000  Uiso   1.00
H352   H     0.46196   0.20518   0.93132   0.00000  Uiso   1.00
H353   H     0.48621   0.12413   0.96353   0.00000  Uiso   1.00
C354   C     0.42184   0.25888   0.98151   0.00000  Uiso   1.00
C355   C     0.43590   0.31726   1.01032   0.00000  Uiso   1.00
C356   C     0.45116   0.37297   1.06178   0.00000  Uiso   1.00
C357   C     0.45917   0.24133   1.02852   0.00000  Uiso   1.00
C358   C     0.44427   0.29136   1.01627   0.00000  Uiso   1.00
C359   C     0.42931   0.23422   0.98737   0.00000  Uiso   1.00
C360   C     0.47385   0.29823   0.05799   0.00000  Uiso   1.00
C361   C     0.48129   0.27359   0.06383   0.00000  Uiso   1.00
C362   C     0.49118   0.18852   0.09637   0.00000  Uiso   1.00
C363   C     0.51409   0.15783   0.04403   0.00000  Uiso   1.00
C364   C     0.53943   0.13232  -0.01729   0.00000  Uiso   1.00
C365   C     0.46824   0.21592   0.03327   0.00000  Uiso   1.00
loop_
_geom_bond_atom_site_label_1
_geom_bond_atom_site_label_2
_geom_bond_distance
_geom_bond_site_symmetry_2
_ccdc_geom_bond_type
O0     C6      1.321   .     A
O0     Yb3     2.281   1_556 S
Yb1    O4      2.150   .     S
Yb1    O9      2.248   .     S
Yb1    O17     2.151   .     S
Yb1    O19     2.115   .     S
Yb1    Yb3     3.278   1_556 S
Yb1    O10     2.129   1_556 S
Yb1    O11     2.282   1_556 S
Yb1    O16     2.144   1_556 S
C2     O16     1.287   .     A
C2     O17     1.274   1_554 A
C2     C356    1.497   1_554 S
Yb3    O10     2.104   .     S
Yb3    O12     2.148   .     S
Yb3    O13     2.149   .     S
Yb3    O18     2.240   .     S
Yb3    O0      2.281   1_554 S
Yb3    Yb1     3.278   1_554 S
Yb3    O7      2.144   1_554 S
Yb3    O19     2.144   1_554 S
O4     C6      1.298   .     A
C5     O18     1.193   .     D
C5     O19     1.340   1_554 S
C5     C186    1.502   1_554 S
C6     C92     1.501   .     S
O7     C8      1.287   .     A
O7     Yb3     2.144   1_556 S
C8     O12     1.273   1_556 A
C8     C330    1.496   1_556 S
O9     C14     1.193   .     D
O10    Yb1     2.129   1_554 S
O10    C14     1.335   1_554 S
O11    C15     1.321   .     A
O11    Yb1     2.282   1_554 S
O12    C8      1.273   1_554 A
O13    C15     1.297   .     A
C14    C262    1.495   .     S
C14    O10     1.335   1_556 S
C15    C84     1.500   .     S
O16    Yb1     2.144   1_554 S
O17    C2      1.274   1_556 A
O19    Yb3     2.144   1_556 S
O19    C5      1.340   1_556 S
O20    Yb23    2.166   .     S
O20    C26     1.306   1_655 A
Yb21   O30     2.166   .     S
Yb21   O31     2.170   .     S
Yb21   O36     2.119   .     S
Yb21   Yb23    2.943   1_454 S
Yb21   O24     2.231   1_554 S
Yb21   O29     2.184   1_554 S
Yb21   O37     2.147   1_554 S
Yb21   O39     2.110   1_454 S
C22    O36     1.278   .     A
C22    C194    1.496   .     S
C22    O37     1.280   1_554 A
Yb23   O27     2.138   .     S
Yb23   O39     2.053   .     S
Yb23   Yb21    2.943   1_656 S
Yb23   O30     2.138   1_656 S
Yb23   O32     2.135   1_556 S
Yb23   O33     2.161   1_556 S
Yb23   O38     2.184   1_556 S
O24    C26     1.319   .     A
O24    Yb21    2.231   1_556 S
C25    O38     1.232   .     D
C25    C220    1.491   .     S
C25    O39     1.387   1_554 S
C26    C118    1.492   .     S
C26    O20     1.306   1_455 A
O27    C28     1.283   .     A
C28    C254    1.488   .     S
C28    O32     1.277   1_556 A
O29    C34     1.226   .     D
O29    Yb21    2.184   1_556 S
O30    Yb23    2.138   1_454 S
O30    C34     1.385   1_554 S
O31    C35     1.310   .     A
O32    Yb23    2.135   1_554 S
O32    C28     1.277   1_554 A
O33    Yb23    2.161   1_554 S
O33    C35     1.305   1_655 A
C34    C296    1.495   .     S
C34    O30     1.385   1_556 S
C35    O33     1.305   1_455 A
C35    C126    1.492   1_455 S
O37    Yb21    2.147   1_556 S
O37    C22     1.280   1_556 A
O38    Yb23    2.184   1_554 S
O39    Yb21    2.110   1_656 S
O39    C25     1.387   1_556 S
O40    C46     1.304   .     A
O40    Yb43    2.162   1_554 S
Yb41   O44     2.175   .     S
Yb41   O49     2.182   .     S
Yb41   O57     2.139   .     S
Yb41   Yb43    2.934   1_564 S
Yb41   O50     2.070   1_554 S
Yb41   O51     2.180   1_554 S
Yb41   O56     2.138   1_554 S
Yb41   O59     2.162   1_565 S
C42    O56     1.281   .     A
C42    C322    1.492   .     S
C42    O57     1.279   1_556 A
Yb43   O52     2.129   .     S
Yb43   O53     2.259   .     S
Yb43   O58     2.166   .     S
Yb43   O40     2.162   1_556 S
Yb43   Yb41    2.934   1_546 S
Yb43   O47     2.121   1_556 S
Yb43   O50     2.105   1_545 S
Yb43   O59     2.170   1_556 S
O44    C46     1.304   1_565 A
C45    O59     1.387   .     S
C45    O58     1.230   1_554 D
C45    C228    1.494   1_554 S
C46    O44     1.304   1_545 A
C46    C152    1.494   1_545 S
O47    C48     1.279   .     A
O47    Yb43    2.121   1_554 S
C48    C364    1.494   .     S
C48    O52     1.280   1_554 A
O49    C54     1.231   .     D
O50    Yb41    2.070   1_556 S
O50    Yb43    2.105   1_565 S
O50    C54     1.386   1_556 S
O51    Yb41    2.180   1_556 S
O51    C55     1.309   1_565 A
O52    C48     1.280   1_556 A
O53    C55     1.326   .     A
C54    C288    1.500   .     S
C54    O50     1.386   1_554 S
C55    C160    1.498   .     S
C55    O51     1.309   1_545 A
O56    Yb41    2.138   1_556 S
O57    C42     1.279   1_554 A
O58    C45     1.230   1_556 D
O59    Yb41    2.162   1_545 S
O59    Yb43    2.170   1_554 S
C60    C64     1.407   .     A
C60    C90     1.408   .     A
C60    C91     1.487   .     S
C61    H78     1.084   .     S
C61    C90     1.398   .     A
C61    C93     1.404   .     A
H62    C82     1.083   .     S
C63    C64     1.398   .     A
C63    H80     1.083   .     S
C63    C93     1.406   .     A
C64    H79     1.082   .     S
N65    H74     1.045   .     S
N65    C83     1.375   .     S
N65    C84     1.469   .     S
N66    H81     1.044   .     S
N66    C91     1.375   .     S
N66    C92     1.466   .     S
O67    C83     1.221   .     D
O68    C91     1.221   .     D
H69    C84     1.112   .     S
H70    C84     1.111   .     S
H71    C87     1.084   .     S
H72    C88     1.082   .     S
H73    C89     1.083   .     S
H75    C90     1.083   .     S
H76    C92     1.112   .     S
H77    C92     1.111   .     S
C82    C86     1.408   .     A
C82    C87     1.397   .     A
C83    C86     1.488   .     S
C85    C87     1.404   .     A
C85    C89     1.406   .     A
C85    C93     1.485   .     S
C86    C88     1.406   .     A
C88    C89     1.399   .     A
C94    C98     1.405   .     A
C94    C125    1.478   .     S
C94    C124    1.405   1_455 A
C95    H112    1.084   .     S
C95    C124    1.397   .     A
C95    C127    1.405   1_655 A
H96    C116    1.083   .     S
C97    C98     1.395   .     A
C97    H114    1.084   .     S
C97    C127    1.403   .     A
C98    H113    1.082   .     S
N99    H108    1.045   .     S
N99    C117    1.430   .     S
N99    C118    1.459   .     S
N100   H115    1.044   .     S
N100   C126    1.459   .     S
N100   C125    1.436   1_655 S
O101   C117    1.220   1_655 D
O102   C125    1.220   .     D
H103   C118    1.113   .     S
H104   C118    1.110   .     S
H105   C121    1.084   .     S
H106   C122    1.082   .     S
H107   C123    1.083   .     S
H109   C124    1.083   .     S
H110   C126    1.114   .     S
H111   C126    1.111   .     S
C116   C120    1.404   .     A
C116   C121    1.396   .     A
C117   C120    1.479   .     S
C117   O101    1.220   1_455 D
C119   C121    1.405   .     A
C119   C127    1.478   .     S
C119   C123    1.402   1_455 A
C120   C122    1.408   1_455 A
C122   C123    1.395   .     A
C122   C120    1.408   1_655 A
C123   C119    1.402   1_655 A
C124   C94     1.405   1_655 A
C125   N100    1.436   1_455 S
C126   C35     1.492   1_655 S
C127   C95     1.405   1_455 A
C128   C158    1.413   .     A
C128   C159    1.499   .     S
C128   C132    1.411   1_545 A
C129   H146    1.084   .     S
C129   C158    1.400   .     A
C129   C161    1.401   .     A
H130   C150    1.083   .     S
C131   C132    1.397   .     A
C131   H148    1.083   .     S
C131   C161    1.402   1_565 A
C132   H147    1.078   .     S
C132   C128    1.411   1_565 A
N133   C151    1.375   .     S
N133   C152    1.466   .     S
N133   H142    1.044   1_565 S
N134   C159    1.377   .     S
N134   C160    1.465   .     S
N134   H149    1.040   1_545 S
O135   C151    1.219   .     D
O136   C159    1.221   .     D
H137   C152    1.111   .     S
H138   C152    1.110   .     S
H139   C155    1.083   .     S
H140   C156    1.083   .     S
H141   C157    1.083   .     S
H142   N133    1.044   1_545 S
H143   C158    1.083   .     S
H144   C160    1.111   .     S
H145   C160    1.111   .     S
H149   N134    1.040   1_565 S
C150   C154    1.405   .     A
C150   C155    1.396   .     A
C151   C154    1.486   .     S
C152   C46     1.494   1_565 S
C153   C155    1.403   .     A
C153   C157    1.404   1_565 A
C153   C161    1.481   1_565 S
C154   C156    1.408   1_565 A
C156   C157    1.401   .     A
C156   C154    1.408   1_545 A
C157   C153    1.404   1_545 A
C161   C131    1.402   1_545 A
C161   C153    1.481   1_545 S
C162   C192    1.408   .     A
C162   C193    1.491   .     S
C162   C166    1.409   1_554 A
C163   H180    1.084   .     S
C163   C192    1.397   .     A
C163   C195    1.403   .     A
H164   C184    1.083   .     S
C165   C166    1.400   .     A
C165   H182    1.083   .     S
C165   C195    1.404   1_556 A
C166   H181    1.080   .     S
C166   C162    1.409   1_556 A
N167   C185    1.376   .     S
N167   C186    1.468   .     S
N167   H176    1.044   1_556 S
N168   C193    1.377   .     S
N168   C194    1.465   .     S
N168   H183    1.042   1_554 S
O169   C185    1.221   .     D
O170   C193    1.221   .     D
H171   C186    1.110   .     S
H172   C186    1.111   .     S
H173   C189    1.084   .     S
H174   C190    1.081   .     S
H175   C191    1.084   .     S
H176   N167    1.044   1_554 S
H177   C192    1.083   .     S
H178   C194    1.109   .     S
H179   C194    1.110   .     S
H183   N168    1.042   1_556 S
C184   C188    1.408   .     A
C184   C189    1.399   .     A
C185   C188    1.489   .     S
C186   C5      1.502   1_556 S
C187   C191    1.404   .     A
C187   C195    1.482   .     S
C187   C189    1.404   1_554 A
C188   C190    1.408   1_556 A
C189   C187    1.404   1_556 A
C190   C191    1.397   .     A
C190   C188    1.408   1_554 A
C195   C165    1.404   1_554 A
C196   C226    1.406   .     A
C196   C227    1.485   .     S
C196   C200    1.407   1_556 A
C197   H214    1.083   .     S
C197   C226    1.396   .     A
C197   C229    1.407   .     A
H198   C218    1.083   .     S
C199   C200    1.400   .     A
C199   H216    1.084   .     S
C199   C229    1.408   1_554 A
C200   H215    1.082   .     S
C200   C196    1.407   1_554 A
N201   C219    1.372   .     S
N201   C220    1.460   .     S
N201   H210    1.047   1_554 S
N202   C227    1.375   .     S
N202   C228    1.465   .     S
N202   H217    1.045   1_556 S
O203   C219    1.222   .     D
O204   C227    1.222   .     D
H205   C220    1.109   .     S
H206   C220    1.104   1_556 S
H207   C223    1.082   .     S
H208   C224    1.083   .     S
H209   C225    1.083   .     S
H210   N201    1.047   1_556 S
H211   C226    1.084   .     S
H212   C228    1.111   .     S
H213   C228    1.110   1_554 S
H217   N202    1.045   1_554 S
C218   C222    1.401   .     A
C218   C223    1.395   .     A
C219   C222    1.476   .     S
C220   H206    1.104   1_554 S
C221   C223    1.408   .     A
C221   C225    1.408   1_554 A
C221   C229    1.490   1_554 S
C222   C224    1.405   1_554 A
C224   C225    1.398   .     A
C224   C222    1.405   1_556 A
C225   C221    1.408   1_556 A
C228   H213    1.110   1_556 S
C228   C45     1.494   1_556 S
C229   C199    1.408   1_556 A
C229   C221    1.490   1_556 S
C230   C260    1.406   .     A
C230   C261    1.486   .     S
C230   C234    1.406   1_556 A
C231   H248    1.082   .     S
C231   C260    1.396   .     A
C231   C263    1.405   .     A
H232   C252    1.083   .     S
C233   C234    1.398   .     A
C233   H250    1.083   .     S
C233   C263    1.406   1_554 A
C234   H249    1.081   .     S
C234   C230    1.406   1_554 A
N235   H244    1.046   .     S
N235   C254    1.460   .     S
N235   C253    1.433   1_556 S
N236   C261    1.374   .     S
N236   C262    1.465   .     S
N236   H251    1.044   1_556 S
O237   C253    1.221   .     D
O238   C261    1.221   .     D
H239   C254    1.113   1_554 S
H240   C254    1.109   .     S
H241   C257    1.083   .     S
H242   C258    1.083   .     S
H243   C259    1.083   .     S
H245   C260    1.083   .     S
H246   C262    1.110   .     S
H247   C262    1.111   1_554 S
H251   N236    1.044   1_554 S
C252   C256    1.404   .     A
C252   C257    1.398   .     A
C253   C256    1.480   .     S
C253   N235    1.433   1_554 S
C254   H239    1.113   1_556 S
C255   C259    1.406   .     A
C255   C263    1.486   .     S
C255   C257    1.406   1_556 A
C256   C258    1.406   1_554 A
C257   C255    1.406   1_554 A
C258   C259    1.397   .     A
C258   C256    1.406   1_556 A
C262   H247    1.111   1_556 S
C263   C233    1.406   1_556 A
C264   C294    1.406   .     A
C264   C295    1.488   .     S
C264   C268    1.407   1_554 A
C265   H282    1.083   .     S
C265   C294    1.398   .     A
C265   C297    1.408   .     A
H266   C286    1.084   .     S
C267   C268    1.400   .     A
C267   H284    1.083   .     S
C267   C297    1.409   1_556 A
C268   H283    1.082   .     S
C268   C264    1.407   1_556 A
N269   H278    1.047   .     S
N269   C288    1.463   .     S
N269   C287    1.436   1_554 S
N270   H285    1.045   .     S
N270   C296    1.460   .     S
N270   C295    1.433   1_556 S
O271   C287    1.220   .     D
O272   C295    1.220   .     D
H273   C288    1.110   1_556 S
H274   C288    1.111   .     S
H275   C291    1.082   .     S
H276   C292    1.084   .     S
H277   C293    1.083   .     S
H279   C294    1.083   .     S
H280   C296    1.112   1_554 S
H281   C296    1.110   .     S
C286   C290    1.402   .     A
C286   C291    1.399   .     A
C287   C290    1.476   .     S
C287   N269    1.436   1_556 S
C288   H273    1.110   1_554 S
C289   C291    1.409   .     A
C289   C293    1.410   1_556 A
C289   C297    1.494   1_556 S
C290   C292    1.402   1_556 A
C292   C293    1.399   .     A
C292   C290    1.402   1_554 A
C293   C289    1.410   1_554 A
C295   N270    1.433   1_554 S
C296   H280    1.112   1_556 S
C297   C267    1.409   1_554 A
C297   C289    1.494   1_554 S
C298   C328    1.411   .     A
C298   C329    1.491   .     S
C298   C302    1.407   1_554 A
C299   H316    1.084   .     S
C299   C328    1.401   .     A
C299   C331    1.406   .     A
H300   C320    1.085   .     S
C301   C302    1.396   .     A
C301   H318    1.083   .     S
C301   C331    1.405   1_556 A
C302   H317    1.080   .     S
C302   C298    1.407   1_556 A
N303   C321    1.374   .     S
N303   C322    1.463   .     S
N303   H312    1.043   1_556 S
N304   H319    1.044   .     S
N304   C329    1.439   1_556 S
N304   C330    1.465   1_556 S
O305   C321    1.222   .     D
O306   C329    1.220   .     D
H307   C322    1.112   .     S
H308   C322    1.111   1_554 S
H309   C325    1.083   .     S
H310   C326    1.079   .     S
H311   C327    1.083   .     S
H312   N303    1.043   1_554 S
H313   C328    1.084   .     S
H314   C330    1.110   .     S
H315   C330    1.110   1_556 S
C320   C324    1.409   .     A
C320   C325    1.397   .     A
C321   C324    1.493   .     S
C322   H308    1.111   1_556 S
C323   C325    1.405   .     A
C323   C327    1.404   1_556 A
C323   C331    1.486   1_556 S
C324   C326    1.411   1_556 A
C326   C327    1.397   .     A
C326   C324    1.411   1_554 A
C327   C323    1.404   1_554 A
C329   N304    1.439   1_554 S
C330   N304    1.465   1_554 S
C330   H315    1.110   1_554 S
C330   C8      1.496   1_554 S
C331   C301    1.405   1_554 A
C331   C323    1.486   1_554 S
C332   C362    1.408   .     A
C332   C363    1.489   .     S
C332   C336    1.409   1_554 A
C333   H350    1.084   .     S
C333   C362    1.398   .     A
C333   C365    1.405   .     A
H334   C354    1.083   .     S
C335   C336    1.400   .     A
C335   H352    1.084   .     S
C335   C365    1.406   1_556 A
C336   H351    1.083   .     S
C336   C332    1.409   1_556 A
N337   H346    1.045   .     S
N337   C355    1.437   1_554 S
N337   C356    1.463   1_554 S
N338   C363    1.375   .     S
N338   C364    1.466   .     S
N338   H353    1.045   1_554 S
O339   C355    1.220   .     D
O340   C363    1.221   .     D
H341   C356    1.111   .     S
H342   C356    1.110   1_554 S
H343   C359    1.083   .     S
H344   C360    1.082   .     S
H345   C361    1.083   .     S
H347   C362    1.083   .     S
H348   C364    1.112   .     S
H349   C364    1.111   1_556 S
H353   N338    1.045   1_556 S
C354   C358    1.407   .     A
C354   C359    1.399   .     A
C355   C358    1.486   .     S
C355   N337    1.437   1_556 S
C356   N337    1.463   1_556 S
C356   H342    1.110   1_556 S
C356   C2      1.497   1_556 S
C357   C359    1.405   .     A
C357   C361    1.406   1_556 A
C357   C365    1.486   1_556 S
C358   C360    1.406   1_556 A
C360   C361    1.397   .     A
C360   C358    1.406   1_554 A
C361   C357    1.406   1_554 A
C364   H349    1.111   1_554 S
C365   C335    1.406   1_554 A
C365   C357    1.486   1_554 S
