data_kag+N139+E229
_audit_creation_date              2025-01-21
_audit_creation_method            'Materials Studio'
_symmetry_space_group_name_H-M    'P1'
_symmetry_Int_Tables_number       1
_symmetry_cell_setting            triclinic
loop_
_symmetry_equiv_pos_as_xyz
  x,y,z
_cell_length_a                    48.2125
_cell_length_b                    43.1220
_cell_length_c                    25.1782
_cell_angle_alpha                 87.3449
_cell_angle_beta                  93.1848
_cell_angle_gamma                 120.2287
loop_
_atom_site_label
_atom_site_type_symbol
_atom_site_fract_x
_atom_site_fract_y
_atom_site_fract_z
_atom_site_U_iso_or_equiv
_atom_site_adp_type
_atom_site_occupancy
C0     C     0.50082   0.47788   0.87046   0.00000  Uiso   1.00
Sm1    Sm    0.45236   0.46050   0.10355   0.00000  Uiso   1.00
Sm2    Sm    0.52072   0.48758   0.97041   0.00000  Uiso   1.00
C3     C     0.49779   0.43622   0.07902   0.00000  Uiso   1.00
C4     C     0.57802   0.49615   0.99223   0.00000  Uiso   1.00
O5     O     0.49476   0.51283   0.13106   0.00000  Uiso   1.00
O6     O     0.46394   0.47769   0.18962   0.00000  Uiso   1.00
O7     O     0.50010   0.52309   0.98551   0.00000  Uiso   1.00
O8     O     0.49711   0.51363   0.07466   0.00000  Uiso   1.00
O9     O     0.43708   0.45923   1.01819   0.00000  Uiso   1.00
O10    O     0.42327   0.48519   0.07469   0.00000  Uiso   1.00
O11    O     0.48333   0.45758   0.90812   0.00000  Uiso   1.00
O12    O     0.52860   0.50367   0.88512   0.00000  Uiso   1.00
O13    O     0.47910   0.42971   0.11610   0.00000  Uiso   1.00
O14    O     0.49935   0.45978   1.04595   0.00000  Uiso   1.00
O15    O     0.56950   0.51796   0.00756   0.00000  Uiso   1.00
O16    O     0.55608   0.46883   0.96688   0.00000  Uiso   1.00
C17    C     0.48869   0.50764   0.18006   0.00000  Uiso   1.00
C18    C     0.49850   0.53246   1.03220   0.00000  Uiso   1.00
C19    C     0.42203   0.47598   0.02648   0.00000  Uiso   1.00
C20    C     1.00552   0.45957   0.17536   0.00000  Uiso   1.00
Sm21   Sm    1.00103   0.53071   0.92224   0.00000  Uiso   1.00
Sm22   Sm    0.00891   0.46419   0.06997   0.00000  Uiso   1.00
C23    C     0.04088   0.54164   1.02879   0.00000  Uiso   1.00
C24    C     0.06385   0.46408   0.06548   0.00000  Uiso   1.00
O25    O     0.98080   0.53633   0.84265   0.00000  Uiso   1.00
O26    O     0.02398   0.53312   0.84577   0.00000  Uiso   1.00
O27    O     0.97828   0.47119   0.00514   0.00000  Uiso   1.00
O28    O     0.97196   0.47018   0.91879   0.00000  Uiso   1.00
O29    O     0.96253   0.52861  -0.02912   0.00000  Uiso   1.00
O30    O     0.95911   0.53408   0.88577   0.00000  Uiso   1.00
O31    O     0.02791   0.45910   0.15104   0.00000  Uiso   1.00
O32    O     0.98476   0.46239   0.14468   0.00000  Uiso   1.00
O33    O     0.03234   0.52399   0.98622   0.00000  Uiso   1.00
O34    O     0.03772   0.52479   0.07294   0.00000  Uiso   1.00
O35    O     0.04852   0.46662   1.02398   0.00000  Uiso   1.00
O36    O     0.05004   0.46044   0.10922   0.00000  Uiso   1.00
C37    C     0.00282   0.53628   0.81668   0.00000  Uiso   1.00
C38    C     0.96872   0.45321  -0.03722   0.00000  Uiso   1.00
C39    C     0.94631   0.53085   0.93047   0.00000  Uiso   1.00
C40    C     0.47607  -0.00986   0.13721   0.00000  Uiso   1.00
Sm41   Sm    0.56728   0.04162   0.94063   0.00000  Uiso   1.00
Sm42   Sm    0.47628   0.99364   0.03092   0.00000  Uiso   1.00
C43    C     0.51120   0.95996   0.97908   0.00000  Uiso   1.00
C44    C     0.42423   0.92943   0.01701   0.00000  Uiso   1.00
O45    O     0.55249   0.05725   0.86046   0.00000  Uiso   1.00
O46    O     0.57849   1.02993   0.86077   0.00000  Uiso   1.00
O47    O     0.51102   0.03132  -0.02647   0.00000  Uiso   1.00
O48    O     0.53447   0.06175   0.90496   0.00000  Uiso   1.00
O49    O     0.57059   0.07456   0.00970   0.00000  Uiso   1.00
O50    O     0.60610   0.09851   0.94982   0.00000  Uiso   1.00
O51    O     0.45421   0.96600   0.10744   0.00000  Uiso   1.00
O52    O     0.49872   0.01610   0.11162   0.00000  Uiso   1.00
O53    O     0.52528   0.98356   0.94197   0.00000  Uiso   1.00
O54    O     0.50665   0.96747   0.02531   0.00000  Uiso   1.00
O55    O     0.44022   0.94940   0.97815   0.00000  Uiso   1.00
O56    O     0.43454   0.94323   0.06281   0.00000  Uiso   1.00
C57    C     0.56531   1.04427   0.83263   0.00000  Uiso   1.00
C58    C     0.51084   0.05081  -0.06518   0.00000  Uiso   1.00
C59    C     0.59570   0.10244   0.99323   0.00000  Uiso   1.00
C60    C     0.51503   0.55790   0.30924   0.00000  Uiso   1.00
C61    C     0.54495   0.58713   0.29572   0.00000  Uiso   1.00
C62    C     0.55649   0.58998   0.24506   0.00000  Uiso   1.00
C63    C     0.53824   0.56383   0.20754   0.00000  Uiso   1.00
C64    C     0.50829   0.53433   0.22052   0.00000  Uiso   1.00
C65    C     0.49686   0.53139   0.27162   0.00000  Uiso   1.00
C66    C     0.50267   0.55548   0.36347   0.00000  Uiso   1.00
H67    H     0.55924   0.60772   0.32441   0.00000  Uiso   1.00
H68    H     0.57956   0.61258   0.23478   0.00000  Uiso   1.00
H69    H     0.54755   0.56660   0.16838   0.00000  Uiso   1.00
H70    H     0.47368   0.50884   0.28180   0.00000  Uiso   1.00
H71    H     0.50231   0.58058   0.37035   0.00000  Uiso   1.00
H72    H     0.47773   0.53243   0.36633   0.00000  Uiso   1.00
C73    C     0.50244   0.47807   0.72061   0.00000  Uiso   1.00
C74    C     0.51245   0.48599   0.77408   0.00000  Uiso   1.00
C75    C     0.52638   0.49259   0.67755   0.00000  Uiso   1.00
C76    C     0.53434   0.52129   0.59077   0.00000  Uiso   1.00
C77    C     0.52251   0.54121   0.55323   0.00000  Uiso   1.00
C78    C     0.46967   0.45599   0.70741   0.00000  Uiso   1.00
C79    C     0.44721   0.44178   0.74722   0.00000  Uiso   1.00
C80    C     0.48998   0.47133   0.81427   0.00000  Uiso   1.00
H81    H     0.46159   0.44975   0.66625   0.00000  Uiso   1.00
H82    H     0.42198   0.42478   0.73678   0.00000  Uiso   1.00
H83    H     0.43956   0.43763   0.83092   0.00000  Uiso   1.00
H84    H     0.53774   0.50290   0.78445   0.00000  Uiso   1.00
H85    H     0.52410   0.46939   0.65604   0.00000  Uiso   1.00
C86    C     0.51494   0.55365   0.45667   0.00000  Uiso   1.00
C87    C     0.53242   0.54145   0.49675   0.00000  Uiso   1.00
H88    H     0.56096   0.53715   0.59584   0.00000  Uiso   1.00
H89    H     0.49585   0.52728   0.55416   0.00000  Uiso   1.00
H90    H     0.53267   0.56924   0.56649   0.00000  Uiso   1.00
H91    H     0.52711   0.49487   0.57337   0.00000  Uiso   1.00
H92    H     0.55134   0.50817   0.69442   0.00000  Uiso   1.00
H93    H     0.48857   0.53620   0.46118   0.00000  Uiso   1.00
H94    H     0.52219   0.58199   0.46416   0.00000  Uiso   1.00
N95    N     0.52361   0.55081   0.40325   0.00000  Uiso   1.00
N96    N     0.51965   0.51601   0.64208   0.00000  Uiso   1.00
C97    C     0.45728   0.44917   0.80050   0.00000  Uiso   1.00
C98    C     0.02772   0.54197   0.67431   0.00000  Uiso   1.00
C99    C     0.00510   0.54880   0.64687   0.00000  Uiso   1.00
C100   C    -0.01847   0.55035   0.67437   0.00000  Uiso   1.00
C101   C    -0.01939   0.54582   0.72960   0.00000  Uiso   1.00
C102   C     0.00355   0.53990   0.75805   0.00000  Uiso   1.00
C103   C     0.02696   0.53782   0.73011   0.00000  Uiso   1.00
C104   C     0.05230   0.53894   0.64399   0.00000  Uiso   1.00
H105   H     0.00544   0.55256   0.60409   0.00000  Uiso   1.00
H106   H     0.96393   0.55518   0.65283   0.00000  Uiso   1.00
H107   H    -0.03786   0.54729   0.75004   0.00000  Uiso   1.00
H108   H     0.04461   0.53306   0.75171   0.00000  Uiso   1.00
H109   H     0.06890   0.56532   0.62501   0.00000  Uiso   1.00
H110   H     0.06745   0.53236   0.67167   0.00000  Uiso   1.00
C111   C     0.98052   0.45944   0.31600   0.00000  Uiso   1.00
C112   C     0.98160   0.46193   0.26010   0.00000  Uiso   1.00
C113   C     0.95696   0.46551   0.34429   0.00000  Uiso   1.00
C114   C     0.97320   0.48605   0.43588   0.00000  Uiso   1.00
C115   C     0.00526   0.51149   0.46373   0.00000  Uiso   1.00
C116   C     1.00185   0.45140   0.34537   0.00000  Uiso   1.00
C117   C     0.02435   0.44681   0.31959   0.00000  Uiso   1.00
C118   C     1.00407   0.45701   0.23396   0.00000  Uiso   1.00
H119   H     0.00136   0.44894   0.38827   0.00000  Uiso   1.00
H120   H     0.04090   0.44097   0.34259   0.00000  Uiso   1.00
H121   H     0.04323   0.44594   0.24516   0.00000  Uiso   1.00
H122   H     0.96508   0.46785   0.23709   0.00000  Uiso   1.00
H123   H     0.93988   0.44050   0.36592   0.00000  Uiso   1.00
C124   C     0.03779   0.52298   0.55032   0.00000  Uiso   1.00
C125   C     1.00575   0.49913   0.52142   0.00000  Uiso   1.00
H126   H     0.95357   0.48789   0.45396   0.00000  Uiso   1.00
H127   H     0.02498   0.51158   0.44271   0.00000  Uiso   1.00
H128   H     0.00893   0.53912   0.46242   0.00000  Uiso   1.00
H129   H     0.96853   0.45812   0.44202   0.00000  Uiso   1.00
H130   H     0.94215   0.47156   0.31496   0.00000  Uiso   1.00
H131   H     0.05719   0.52145   0.53088   0.00000  Uiso   1.00
H132   H     0.04276   0.55114   0.54731   0.00000  Uiso   1.00
N133   N     0.03601   0.50991   0.60557   0.00000  Uiso   1.00
N134   N     0.97439   0.49640   0.37930   0.00000  Uiso   1.00
C135   C     1.02559   0.44970   0.26426   0.00000  Uiso   1.00
C136   C     0.49886   1.00167   0.28547   0.00000  Uiso   1.00
C137   C     0.46871   0.97843   0.30668   0.00000  Uiso   1.00
C138   C     0.44159   0.96026   0.27322   0.00000  Uiso   1.00
C139   C     0.44427  -0.03553   0.21823   0.00000  Uiso   1.00
C140   C     0.47413  -0.01249   0.19582   0.00000  Uiso   1.00
C141   C     0.50138   0.00650   0.22972   0.00000  Uiso   1.00
C142   C     0.52827   1.01902   0.32223   0.00000  Uiso   1.00
H143   H     0.46608   0.97411   0.34916   0.00000  Uiso   1.00
H144   H     0.41845   0.94248   0.28995   0.00000  Uiso   1.00
H145   H     0.42287  -0.05039   0.19314   0.00000  Uiso   1.00
H146   H     0.52458   0.02382   0.21281   0.00000  Uiso   1.00
H147   H     0.53285   0.99763   0.33929   0.00000  Uiso   1.00
H148   H     0.54974   1.03792   0.29957   0.00000  Uiso   1.00
C149   C     0.54522   0.05438   0.68648   0.00000  Uiso   1.00
C150   C     0.54379   1.05221   0.74248   0.00000  Uiso   1.00
C151   C     0.52168   0.06053   0.65218   0.00000  Uiso   1.00
C152   C     0.51711   0.05410   0.55567   0.00000  Uiso   1.00
C153   C     0.51317   1.02786   0.51315   0.00000  Uiso   1.00
C154   C     0.56938   0.05137   0.66251   0.00000  Uiso   1.00
C155   C     0.59081   0.04477   0.69345   0.00000  Uiso   1.00
C156   C     0.56578   1.04613   0.77386   0.00000  Uiso   1.00
H157   H     0.57138   0.05363   0.61971   0.00000  Uiso   1.00
H158   H     0.60904   0.04198   0.67454   0.00000  Uiso   1.00
H159   H     0.60603   1.03702   0.77184   0.00000  Uiso   1.00
H160   H     0.52563   1.05512   0.76152   0.00000  Uiso   1.00
H161   H     0.53384   0.08915   0.63859   0.00000  Uiso   1.00
C162   C     0.52396   1.02407   0.41693   0.00000  Uiso   1.00
C163   C     0.52005   0.04633   0.45813   0.00000  Uiso   1.00
H164   H     0.50089   0.06506   0.54575   0.00000  Uiso   1.00
H165   H     0.53014   1.01790   0.52309   0.00000  Uiso   1.00
H166   H     0.48823   1.00463   0.51256   0.00000  Uiso   1.00
H167   H     0.54250   0.07651   0.55616   0.00000  Uiso   1.00
H168   H     0.50115   0.05595   0.67591   0.00000  Uiso   1.00
H169   H     0.54707   1.02465   0.42584   0.00000  Uiso   1.00
H170   H     0.50383   0.99590   0.41947   0.00000  Uiso   1.00
N171   N     0.52404   1.03922   0.36352   0.00000  Uiso   1.00
N172   N     0.50904   0.03547   0.60770   0.00000  Uiso   1.00
C173   C     0.58895   0.04193   0.74868   0.00000  Uiso   1.00
C174   C     0.35359   0.47731   0.94804   0.00000  Uiso   1.00
C175   C     0.36884   0.49530   0.90117   0.00000  Uiso   1.00
C176   C     0.40137   0.50705   0.89552   0.00000  Uiso   1.00
C177   C     0.41885   0.50061   0.93628   0.00000  Uiso   1.00
C178   C     0.40412   0.48354   0.98383   0.00000  Uiso   1.00
C179   C     0.37162   0.47232   0.98983   0.00000  Uiso   1.00
C180   C     0.31783   0.46080   0.95139   0.00000  Uiso   1.00
H181   H     0.35533   0.49945   0.86859   0.00000  Uiso   1.00
H182   H     0.41290   0.52058   0.85907   0.00000  Uiso   1.00
H183   H     0.44387   0.50923   0.93094   0.00000  Uiso   1.00
H184   H     0.36007   0.45826   1.02607   0.00000  Uiso   1.00
H185   H     0.30619   0.44251   0.91723   0.00000  Uiso   1.00
H186   H     0.30933   0.44446   0.98871   0.00000  Uiso   1.00
C187   C     0.14723   0.49059   0.02279   0.00000  Uiso   1.00
C188   C     0.11579   0.48490   0.02161   0.00000  Uiso   1.00
C189   C     0.17001   0.51278  -0.02012   0.00000  Uiso   1.00
C190   C     0.21722   0.50918  -0.03874   0.00000  Uiso   1.00
C191   C     0.22774   0.48349   0.94351   0.00000  Uiso   1.00
C192   C     0.15778   0.47682   0.06591   0.00000  Uiso   1.00
C193   C     0.13736   0.45791   0.10735   0.00000  Uiso   1.00
C194   C     0.09547   0.46666   0.06392   0.00000  Uiso   1.00
H195   H     0.18188   0.48090   0.06763   0.00000  Uiso   1.00
H196   H     0.14567   0.44738   0.14046   0.00000  Uiso   1.00
H197   H     0.09125   0.43911   0.13983   0.00000  Uiso   1.00
H198   H     0.10766   0.49602   0.98899   0.00000  Uiso   1.00
H199   H     0.18953   0.53809  -0.00234   0.00000  Uiso   1.00
C200   C     0.27411   0.47234   0.94172   0.00000  Uiso   1.00
C201   C     0.26398   0.49961   0.95257   0.00000  Uiso   1.00
H202   H     0.22849   0.53422   0.93635   0.00000  Uiso   1.00
H203   H     0.21493   0.45789   0.96680   0.00000  Uiso   1.00
H204   H     0.22131   0.47786   0.90055   0.00000  Uiso   1.00
H205   H     0.22518   0.51588   0.00363   0.00000  Uiso   1.00
H206   H     0.15765   0.52073  -0.05173   0.00000  Uiso   1.00
H207   H     0.26140   0.44881   0.96924   0.00000  Uiso   1.00
H208   H     0.26724   0.46349   0.89987   0.00000  Uiso   1.00
N209   N     0.30895   0.48871   0.94997   0.00000  Uiso   1.00
N210   N     0.18216   0.49190  -0.04449   0.00000  Uiso   1.00
C211   C     0.10649   0.45318   0.10675   0.00000  Uiso   1.00
C212   C     0.91627   0.35573   0.00162   0.00000  Uiso   1.00
C213   C     0.92363   0.33900  -0.03731   0.00000  Uiso   1.00
C214   C     0.94655   0.35965  -0.07481   0.00000  Uiso   1.00
C215   C     0.96181   0.39707  -0.07445   0.00000  Uiso   1.00
C216   C     0.95497   0.41413  -0.03535   0.00000  Uiso   1.00
C217   C     0.93257   0.39335   0.00312   0.00000  Uiso   1.00
C218   C     0.88922   0.33364   0.03811   0.00000  Uiso   1.00
H219   H     0.91120   0.31000  -0.03914   0.00000  Uiso   1.00
H220   H     0.95196   0.34660  -0.10500   0.00000  Uiso   1.00
H221   H     0.97880   0.41275  -0.10469   0.00000  Uiso   1.00
H222   H     0.92646   0.40643   0.03235   0.00000  Uiso   1.00
H223   H     0.88966   0.30883   0.05088   0.00000  Uiso   1.00
H224   H     0.89212   0.34913   0.07418   0.00000  Uiso   1.00
C225   C     0.65405   0.19974   1.02609   0.00000  Uiso   1.00
C226   C     0.63864   0.16682   0.99982   0.00000  Uiso   1.00
C227   C     0.68316   0.23148   1.00321   0.00000  Uiso   1.00
C228   C     0.74098   0.26347   1.00730   0.00000  Uiso   1.00
C229   C     0.77057   0.26951   0.04079   0.00000  Uiso   1.00
C230   C     0.64209   0.20259   1.07402   0.00000  Uiso   1.00
C231   C     0.61514   0.17299   1.09540   0.00000  Uiso   1.00
C232   C     0.61168   0.13692   0.02128   0.00000  Uiso   1.00
H233   H     0.65360   0.22783   1.09469   0.00000  Uiso   1.00
H234   H     0.60602   0.17540   1.13237   0.00000  Uiso   1.00
H235   H     0.57922   0.11749   0.08669   0.00000  Uiso   1.00
H236   H     0.64796   0.16456   0.96289   0.00000  Uiso   1.00
H237   H     0.68071   0.25573   1.00464   0.00000  Uiso   1.00
C238   C     0.83141   0.30195   0.04232   0.00000  Uiso   1.00
C239   C     0.80089   0.29488   0.01105   0.00000  Uiso   1.00
H240   H     0.74165   0.25334   0.96779   0.00000  Uiso   1.00
H241   H     0.77103   0.28139   0.07932   0.00000  Uiso   1.00
H242   H     0.76951   0.24334   0.04855   0.00000  Uiso   1.00
H243   H     0.74130   0.28941   1.00169   0.00000  Uiso   1.00
H244   H     0.68496   0.22675   0.96075   0.00000  Uiso   1.00
H245   H     0.83325   0.31571   0.07974   0.00000  Uiso   1.00
H246   H     0.83042   0.27599   0.05184   0.00000  Uiso   1.00
N247   N     0.85889   0.32465   0.00956   0.00000  Uiso   1.00
N248   N     0.71190   0.23709   1.03411   0.00000  Uiso   1.00
C249   C     0.59997   0.14017   1.06933   0.00000  Uiso   1.00
C250   C     0.86835   0.51488   0.98554   0.00000  Uiso   1.00
C251   C     0.85469   0.52324   0.94020   0.00000  Uiso   1.00
C252   C     0.87099   0.53426   0.89273   0.00000  Uiso   1.00
C253   C     0.90095   0.53702   0.88969   0.00000  Uiso   1.00
C254   C     0.91507   0.52892   0.93439   0.00000  Uiso   1.00
C255   C     0.89855   0.51770   0.98209   0.00000  Uiso   1.00
C256   C     0.85128   0.50235   1.03754   0.00000  Uiso   1.00
H257   H     0.83140   0.52110   0.94098   0.00000  Uiso   1.00
H258   H     0.86025   0.54050   0.85806   0.00000  Uiso   1.00
H259   H     0.91306   0.54539   0.85234   0.00000  Uiso   1.00
H260   H     0.90903   0.51082   0.01654   0.00000  Uiso   1.00
H261   H     0.84076   0.47279   1.04279   0.00000  Uiso   1.00
H262   H     0.86934   0.51493   1.07065   0.00000  Uiso   1.00
C263   C     0.65654   0.49770  -0.02173   0.00000  Uiso   1.00
C264   C     0.62414   0.48830  -0.02927   0.00000  Uiso   1.00
C265   C     0.67179   0.48551  -0.06022   0.00000  Uiso   1.00
C266   C     0.72307   0.49005  -0.03600   0.00000  Uiso   1.00
C267   C     0.73940   0.47412   0.00012   0.00000  Uiso   1.00
C268   C     0.67510   0.52058   0.01993   0.00000  Uiso   1.00
C269   C     0.66158   0.53390   0.05333   0.00000  Uiso   1.00
C270   C     0.61078   0.50263   0.00329   0.00000  Uiso   1.00
H271   H     0.70009   0.52848   0.02658   0.00000  Uiso   1.00
H272   H     0.67605   0.55148   0.08532   0.00000  Uiso   1.00
H273   H     0.61988   0.53656   0.07048   0.00000  Uiso   1.00
H274   H     0.60979   0.47130   0.93807   0.00000  Uiso   1.00
H275   H     0.68826   0.50902  -0.08527   0.00000  Uiso   1.00
C276   C     0.79454   0.48446   1.02964   0.00000  Uiso   1.00
C277   C     0.77530   0.50105   1.00536   0.00000  Uiso   1.00
H278   H     0.72947   0.49039   0.92211   0.00000  Uiso   1.00
H279   H     0.72924   0.46821   0.04034   0.00000  Uiso   1.00
H280   H     0.73518   0.44876   0.98285   0.00000  Uiso   1.00
H281   H     0.73187   0.51817  -0.02438   0.00000  Uiso   1.00
H282   H     0.65323   0.46563  -0.08784   0.00000  Uiso   1.00
H283   H     0.78367   0.46944   1.06701   0.00000  Uiso   1.00
H284   H     0.79407   0.46562   1.00036   0.00000  Uiso   1.00
N285   N     0.82732   0.51349   1.04168   0.00000  Uiso   1.00
N286   N     0.68814   0.46846  -0.03150   0.00000  Uiso   1.00
C287   C     0.62973   0.52532   0.04478   0.00000  Uiso   1.00
C288   C     0.34236   0.84658   0.02726   0.00000  Uiso   1.00
C289   C     0.34935   0.82026   0.01270   0.00000  Uiso   1.00
C290   C     0.38000   0.83003  -0.00331   0.00000  Uiso   1.00
C291   C     0.40405   0.86607  -0.00423   0.00000  Uiso   1.00
C292   C     0.39761   0.89259   1.01091   0.00000  Uiso   1.00
C293   C     0.36676   0.88285   0.02673   0.00000  Uiso   1.00
C294   C     0.30952   0.83552   0.04599   0.00000  Uiso   1.00
H295   H     0.33109   0.79212   0.01415   0.00000  Uiso   1.00
H296   H     0.38533   0.80958  -0.01388   0.00000  Uiso   1.00
H297   H     0.42804   0.87305  -0.01423   0.00000  Uiso   1.00
H298   H     0.36202   0.90330   1.03967   0.00000  Uiso   1.00
H299   H     0.30659   0.82082   0.08468   0.00000  Uiso   1.00
H300   H     0.30702   0.85933   0.05242   0.00000  Uiso   1.00
C301   C     0.08957   0.64032   0.99409   0.00000  Uiso   1.00
C302   C     0.07819   0.60325   0.99587   0.00000  Uiso   1.00
C303   C     0.11908   0.66555   0.96416   0.00000  Uiso   1.00
C304   C     0.17385   0.71395   0.97537   0.00000  Uiso   1.00
C305   C     0.19701   0.74233   1.01439   0.00000  Uiso   1.00
C306   C     0.07363   0.65386   1.02193   0.00000  Uiso   1.00
C307   C     0.04747   0.63082   1.05275   0.00000  Uiso   1.00
C308   C     0.05204   0.58017   1.02695   0.00000  Uiso   1.00
H309   H     0.08186   0.68234   1.02043   0.00000  Uiso   1.00
H310   H     0.03546   0.64149   1.07443   0.00000  Uiso   1.00
H311   H     0.01675   0.57653   1.08013   0.00000  Uiso   1.00
H312   H     0.09018   0.59242   0.97434   0.00000  Uiso   1.00
H313   H     0.11273   0.68047   0.93331   0.00000  Uiso   1.00
C314   C     0.25331   0.79387   0.02908   0.00000  Uiso   1.00
C315   C     0.22964   0.76601   0.98998   0.00000  Uiso   1.00
H316   H     0.18440   0.69769   0.96331   0.00000  Uiso   1.00
H317   H     0.18687   0.75926   1.02511   0.00000  Uiso   1.00
H318   H     0.20004   0.72877   0.05107   0.00000  Uiso   1.00
H319   H     0.16973   0.72744   0.93952   0.00000  Uiso   1.00
H320   H     0.12835   0.65031   0.94406   0.00000  Uiso   1.00
H321   H     0.24538   0.81341   0.03642   0.00000  Uiso   1.00
H322   H     0.25389   0.77988   0.06706   0.00000  Uiso   1.00
N323   N     0.28509   0.81254   0.00642   0.00000  Uiso   1.00
N324   N     0.14363   0.69065   1.00157   0.00000  Uiso   1.00
C325   C     0.03696   0.59411   1.05597   0.00000  Uiso   1.00
C326   C     0.49755   0.86579   0.97506   0.00000  Uiso   1.00
C327   C     0.47816   0.85363   0.92830   0.00000  Uiso   1.00
C328   C     0.46821   0.87533   0.90058   0.00000  Uiso   1.00
C329   C     0.47832   0.90973   0.91825   0.00000  Uiso   1.00
C330   C     0.49755   0.92224   0.96499   0.00000  Uiso   1.00
C331   C     0.50662   0.89995   0.99393   0.00000  Uiso   1.00
C332   C     0.51182   0.84445   1.00038   0.00000  Uiso   1.00
H333   H     0.47126   0.82762   0.91274   0.00000  Uiso   1.00
H334   H     0.45330   0.86582   0.86459   0.00000  Uiso   1.00
H335   H     0.47133   0.92675   0.89530   0.00000  Uiso   1.00
H336   H     0.52252   0.91014   1.02883   0.00000  Uiso   1.00
H337   H     0.53077   0.84749   0.97369   0.00000  Uiso   1.00
H338   H     0.52364   0.85543   1.03963   0.00000  Uiso   1.00
C339   C     0.48878   0.61364   0.04343   0.00000  Uiso   1.00
C340   C     0.48214   0.57914   0.03019   0.00000  Uiso   1.00
C341   C     0.46368   0.62451   0.03574   0.00000  Uiso   1.00
C342   C     0.46469   0.68117   0.01941   0.00000  Uiso   1.00
C343   C     0.48581   0.71866   0.99584   0.00000  Uiso   1.00
C344   C     0.51910   0.63800   0.06588   0.00000  Uiso   1.00
C345   C     0.54264   0.62836   0.07419   0.00000  Uiso   1.00
C346   C     0.50565   0.56929   1.03970   0.00000  Uiso   1.00
H347   H     0.52453   0.66453   0.07684   0.00000  Uiso   1.00
H348   H     0.56600   0.64732   0.09116   0.00000  Uiso   1.00
H349   H     0.55423   0.58672   0.06896   0.00000  Uiso   1.00
H350   H     0.45860   0.55978   1.01426   0.00000  Uiso   1.00
H351   H     0.45699   0.62758   0.07596   0.00000  Uiso   1.00
C352   C     0.49962   0.78310   0.99818   0.00000  Uiso   1.00
C353   C     0.47483   0.74439   1.01205   0.00000  Uiso   1.00
H354   H     0.43943   0.67006   0.00424   0.00000  Uiso   1.00
H355   H     0.51104   0.72864   1.01050   0.00000  Uiso   1.00
H356   H     0.48480   0.71744   0.95172   0.00000  Uiso   1.00
H357   H     0.46578   0.68334   0.06347   0.00000  Uiso   1.00
H358   H     0.44172   0.60348   0.01490   0.00000  Uiso   1.00
H359   H     0.52183   0.79098   1.02327   0.00000  Uiso   1.00
H360   H     0.50520   0.78511   0.95543   0.00000  Uiso   1.00
N361   N     0.48690   0.80671   1.00788   0.00000  Uiso   1.00
N362   N     0.47683   0.65797   0.00400   0.00000  Uiso   1.00
C363   C     0.53593   0.59411   0.06135   0.00000  Uiso   1.00
C364   C     0.51481   0.36010   0.06938   0.00000  Uiso   1.00
C365   C     0.54852   0.37894   0.07310   0.00000  Uiso   1.00
C366   C     0.56543   0.41617   0.07889   0.00000  Uiso   1.00
C367   C     0.54885   0.43492   0.08084   0.00000  Uiso   1.00
C368   C     0.51535   0.41678   0.07499   0.00000  Uiso   1.00
C369   C     0.49831   0.37928   0.07018   0.00000  Uiso   1.00
C370   C     0.49667   0.31968   0.06876   0.00000  Uiso   1.00
H371   H     0.56166   0.36466   0.07304   0.00000  Uiso   1.00
H372   H     0.59138   0.43044   0.08303   0.00000  Uiso   1.00
H373   H     0.56209   0.46342   0.08818   0.00000  Uiso   1.00
H374   H     0.47229   0.36507   0.06792   0.00000  Uiso   1.00
H375   H     0.50397   0.30977   0.10547   0.00000  Uiso   1.00
H376   H     0.47035   0.30912   0.06957   0.00000  Uiso   1.00
C377   C     0.47155   0.10667   0.90320   0.00000  Uiso   1.00
C378   C     0.49445   0.09553   0.90712   0.00000  Uiso   1.00
C379   C     0.48145   0.14525   0.89053   0.00000  Uiso   1.00
C380   C     0.48863   0.19931   0.92934   0.00000  Uiso   1.00
C381   C     0.48385   0.21386  -0.01991   0.00000  Uiso   1.00
C382   C     0.43950   0.08189   0.91464   0.00000  Uiso   1.00
C383   C     0.43068   0.04687   0.93130   0.00000  Uiso   1.00
C384   C     0.48579   0.06058  -0.07490   0.00000  Uiso   1.00
H385   H     0.42148   0.08992   0.91165   0.00000  Uiso   1.00
H386   H     0.40601   0.02799   0.94068   0.00000  Uiso   1.00
H387   H     0.44675   0.00958   0.95161   0.00000  Uiso   1.00
H388   H     0.51933   0.11461  -0.10094   0.00000  Uiso   1.00
H389   H     0.46580   0.14633   0.85720   0.00000  Uiso   1.00
C390   C     0.49000   0.26789   0.02537   0.00000  Uiso   1.00
C391   C     0.49570   0.25406  -0.02528   0.00000  Uiso   1.00
H392   H     0.51451   0.21438   0.91986   0.00000  Uiso   1.00
H393   H     0.45788   0.19911  -0.01112   0.00000  Uiso   1.00
H394   H     0.49737   0.20920   0.01372   0.00000  Uiso   1.00
H395   H     0.47424   0.20273   0.89591   0.00000  Uiso   1.00
H396   H     0.50680   0.16039   0.87804   0.00000  Uiso   1.00
H397   H     0.46367   0.25451   0.03090   0.00000  Uiso   1.00
H398   H     0.50157   0.26112   0.05987   0.00000  Uiso   1.00
N399   N     0.50378   0.30688   0.02123   0.00000  Uiso   1.00
N400   N     0.47803   0.16120   0.93804   0.00000  Uiso   1.00
C401   C     0.45382   0.03643   0.93739   0.00000  Uiso   1.00
loop_
_geom_bond_atom_site_label_1
_geom_bond_atom_site_label_2
_geom_bond_distance
_geom_bond_site_symmetry_2
_ccdc_geom_bond_type
C0     O11     1.283   .     A
C0     O12     1.285   .     A
C0     C80     1.470   .     S
Sm1    O5      2.257   .     S
Sm1    O6      2.270   .     S
Sm1    O8      2.340   .     S
Sm1    O10     2.224   .     S
Sm1    O13     2.272   .     S
Sm1    O9      2.227   1_554 S
Sm2    O7      2.260   .     S
Sm2    O11     2.215   .     S
Sm2    O12     2.219   .     S
Sm2    O14     2.209   .     S
Sm2    O16     2.232   .     S
Sm2    O15     2.211   1_556 S
C3     O13     1.256   .     A
C3     C368    1.470   .     S
C3     O14     1.258   1_554 A
C4     O16     1.286   .     A
C4     O15     1.282   1_556 A
C4     C270    1.471   1_556 S
O5     C17     1.267   .     A
O6     C17     1.265   .     A
O7     C18     1.280   .     A
O8     C18     1.296   1_554 A
O9     Sm1     2.227   1_556 S
O9     C19     1.284   1_556 A
O10    C19     1.284   .     A
O14    C3      1.258   1_556 A
O15    Sm2     2.211   1_554 S
O15    C4      1.282   1_554 A
C17    C64     1.470   .     S
C18    C346    1.465   .     S
C18    O8      1.296   1_556 A
C19    O9      1.284   1_554 A
C19    C178    1.468   1_554 S
C20    O32     1.281   .     A
C20    C118    1.477   .     S
C20    O31     1.280   1_655 A
Sm21   O25     2.236   .     S
Sm21   O28     2.260   .     S
Sm21   O30     2.242   .     S
Sm21   O26     2.246   1_655 S
Sm21   O29     2.242   1_556 S
Sm21   O33     2.255   1_655 S
Sm22   O31     2.238   .     S
Sm22   O34     2.262   .     S
Sm22   O36     2.242   .     S
Sm22   O27     2.252   1_455 S
Sm22   O32     2.245   1_455 S
Sm22   O35     2.243   1_554 S
C23    O33     1.269   .     A
C23    C308    1.465   .     S
C23    O34     1.273   1_556 A
C24    O36     1.281   .     A
C24    C194    1.474   .     S
C24    O35     1.279   1_554 A
O25    C37     1.279   1_655 A
O26    C37     1.282   .     A
O26    Sm21    2.246   1_455 S
O27    C38     1.270   .     A
O27    Sm22    2.252   1_655 S
O28    C38     1.271   1_556 A
O29    Sm21    2.242   1_554 S
O29    C39     1.278   1_554 A
O30    C39     1.282   .     A
O31    C20     1.280   1_455 A
O32    Sm22    2.245   1_655 S
O33    Sm21    2.255   1_455 S
O34    C23     1.273   1_554 A
O35    Sm22    2.243   1_556 S
O35    C24     1.279   1_556 A
C37    C102    1.478   .     S
C37    O25     1.279   1_455 A
C38    C216    1.467   .     S
C38    O28     1.271   1_554 A
C39    C254    1.474   .     S
C39    O29     1.278   1_556 A
C40    O52     1.281   .     A
C40    C140    1.479   .     S
C40    O51     1.279   1_545 A
Sm41   O45     2.288   .     S
Sm41   O48     2.284   .     S
Sm41   O50     2.226   .     S
Sm41   O46     2.254   1_545 S
Sm41   O49     2.244   1_556 S
Sm41   O53     2.295   1_545 S
Sm42   O51     2.237   .     S
Sm42   O54     2.266   .     S
Sm42   O56     2.244   .     S
Sm42   O47     2.201   1_565 S
Sm42   O52     2.263   1_565 S
Sm42   O55     2.251   1_554 S
C43    O53     1.287   .     A
C43    C330    1.468   .     S
C43    O54     1.282   1_556 A
C44    O56     1.278   .     A
C44    O55     1.277   1_554 A
C44    C292    1.464   1_554 S
O45    C57     1.272   1_545 A
O46    C57     1.262   .     A
O46    Sm41    2.254   1_565 S
O47    C58     1.260   .     A
O47    Sm42    2.201   1_545 S
O48    C58     1.267   1_556 A
O49    Sm41    2.244   1_554 S
O49    C59     1.276   1_554 A
O50    C59     1.280   .     A
O51    C40     1.279   1_565 A
O52    Sm42    2.263   1_545 S
O53    Sm41    2.295   1_565 S
O54    C43     1.282   1_554 A
O55    Sm42    2.251   1_556 S
O55    C44     1.277   1_556 A
C57    C156    1.479   .     S
C57    O45     1.272   1_565 A
C58    C384    1.472   .     S
C58    O48     1.267   1_554 A
C59    O49     1.276   1_556 A
C59    C232    1.479   1_556 S
C60    C61     1.403   .     A
C60    C65     1.404   .     A
C60    C66     1.498   .     S
C61    C62     1.395   .     A
C61    H67     1.083   .     S
C62    C63     1.395   .     A
C62    H68     1.082   .     S
C63    C64     1.405   .     A
C63    H69     1.083   .     S
C64    C65     1.403   .     A
C65    H70     1.084   .     S
C66    H71     1.113   .     S
C66    H72     1.113   .     S
C66    N95     1.462   .     S
C73    C74     1.402   .     A
C73    C75     1.499   .     S
C73    C78     1.404   .     A
C74    C80     1.403   .     A
C74    H84     1.083   .     S
C75    H85     1.113   .     S
C75    H92     1.112   .     S
C75    N96     1.461   .     S
C76    C77     1.521   .     S
C76    H88     1.113   .     S
C76    H91     1.114   .     S
C76    N96     1.461   .     S
C77    C87     1.523   .     S
C77    H89     1.113   .     S
C77    H90     1.112   .     S
C78    C79     1.396   .     A
C78    H81     1.083   .     S
C79    H82     1.082   .     S
C79    C97     1.396   .     A
C80    C97     1.404   .     A
H83    C97     1.083   .     S
C86    C87     1.519   .     S
C86    H93     1.114   .     S
C86    H94     1.112   .     S
C86    N95     1.459   .     S
C98    C99     1.405   .     A
C98    C103    1.408   .     A
C98    C104    1.506   .     S
C99    C100    1.394   .     A
C99    H105    1.082   .     S
C100   C101    1.395   .     A
C100   H106    1.083   1_455 S
C101   C102    1.407   .     A
C101   H107    1.083   .     S
C102   C103    1.405   .     A
C103   H108    1.084   .     S
C104   H109    1.113   .     S
C104   H110    1.111   .     S
C104   N133    1.469   .     S
H106   C100    1.083   1_655 S
C111   C112    1.408   .     A
C111   C113    1.507   .     S
C111   C116    1.405   .     A
C112   C118    1.406   .     A
C112   H122    1.084   .     S
C113   H123    1.113   .     S
C113   H130    1.111   .     S
C113   N134    1.469   .     S
C114   H126    1.112   .     S
C114   H129    1.113   .     S
C114   N134    1.469   .     S
C114   C115    1.526   1_655 S
C115   H127    1.112   .     S
C115   H128    1.112   .     S
C115   C114    1.526   1_455 S
C115   C125    1.527   1_455 S
C116   C117    1.394   1_655 A
C116   H119    1.081   1_655 S
C117   H120    1.083   .     S
C117   C116    1.394   1_455 A
C117   C135    1.395   1_455 A
C118   C135    1.406   .     A
H119   C116    1.081   1_455 S
H121   C135    1.083   1_455 S
C124   H131    1.111   .     S
C124   H132    1.112   .     S
C124   N133    1.467   .     S
C124   C125    1.523   1_455 S
C125   C115    1.527   1_655 S
C125   C124    1.523   1_655 S
C135   C117    1.395   1_655 A
C135   H121    1.083   1_655 S
C136   C137    1.405   .     A
C136   C142    1.509   .     S
C136   C141    1.412   1_565 A
C137   C138    1.393   .     A
C137   H143    1.081   .     S
C138   H144    1.082   .     S
C138   C139    1.393   1_565 A
C139   C140    1.406   .     A
C139   H145    1.083   .     S
C139   C138    1.393   1_545 A
C140   C141    1.408   .     A
C141   H146    1.083   .     S
C141   C136    1.412   1_545 A
C142   H147    1.115   .     S
C142   H148    1.111   .     S
C142   N171    1.472   .     S
C149   C151    1.509   .     S
C149   C154    1.405   .     A
C149   C150    1.412   1_545 A
C150   C156    1.409   .     A
C150   H160    1.084   .     S
C150   C149    1.412   1_565 A
C151   H161    1.113   .     S
C151   H168    1.111   .     S
C151   N172    1.472   .     S
C152   H164    1.112   .     S
C152   H167    1.114   .     S
C152   N172    1.469   .     S
C152   C153    1.528   1_545 S
C153   H165    1.113   .     S
C153   H166    1.112   .     S
C153   C152    1.528   1_565 S
C153   C163    1.532   1_565 S
C154   C155    1.394   .     A
C154   H157    1.083   .     S
C155   H158    1.082   .     S
C155   C173    1.394   .     A
C156   C173    1.406   1_565 A
H159   C173    1.083   1_565 S
C162   H169    1.112   .     S
C162   H170    1.111   .     S
C162   N171    1.467   .     S
C162   C163    1.526   1_565 S
C163   C153    1.532   1_545 S
C163   C162    1.526   1_545 S
C173   C156    1.406   1_545 A
C173   H159    1.083   1_545 S
C174   C175    1.404   .     A
C174   C179    1.405   .     A
C174   C180    1.504   .     S
C175   C176    1.398   .     A
C175   H181    1.083   .     S
C176   C177    1.398   .     A
C176   H182    1.083   .     S
C177   C178    1.402   .     A
C177   H183    1.083   .     S
C178   C179    1.403   .     A
C178   C19     1.468   1_556 S
C179   H184    1.084   .     S
C180   H185    1.114   .     S
C180   H186    1.113   .     S
C180   N209    1.465   .     S
C187   C188    1.407   .     A
C187   C189    1.506   .     S
C187   C192    1.405   .     A
C188   C194    1.406   .     A
C188   H198    1.084   1_554 S
C189   H199    1.114   .     S
C189   H206    1.111   .     S
C189   N210    1.467   .     S
C190   H205    1.113   .     S
C190   N210    1.466   .     S
C190   C191    1.524   1_554 S
C190   H202    1.113   1_554 S
C191   C201    1.528   .     S
C191   H203    1.113   .     S
C191   H204    1.112   .     S
C191   C190    1.524   1_556 S
C192   C193    1.396   .     A
C192   H195    1.083   .     S
C193   H196    1.083   .     S
C193   C211    1.396   .     A
C194   C211    1.404   .     A
H197   C211    1.083   .     S
H198   C188    1.084   1_556 S
C200   C201    1.523   .     S
C200   H207    1.114   .     S
C200   H208    1.112   .     S
C200   N209    1.464   .     S
H202   C190    1.113   1_556 S
C212   C213    1.403   .     A
C212   C217    1.403   .     A
C212   C218    1.501   .     S
C213   C214    1.397   .     A
C213   H219    1.083   .     S
C214   C215    1.397   .     A
C214   H220    1.082   .     S
C215   C216    1.402   .     A
C215   H221    1.082   .     S
C216   C217    1.403   .     A
C217   H222    1.084   .     S
C218   H223    1.113   .     S
C218   H224    1.113   .     S
C218   N247    1.464   .     S
C225   C226    1.406   .     A
C225   C227    1.502   .     S
C225   C230    1.402   .     A
C226   H236    1.084   .     S
C226   C232    1.403   1_556 A
C227   H237    1.112   .     S
C227   H244    1.114   .     S
C227   N248    1.465   .     S
C228   H240    1.113   .     S
C228   H243    1.113   .     S
C228   N248    1.464   .     S
C228   C229    1.525   1_556 S
C229   C239    1.526   .     S
C229   H241    1.112   .     S
C229   H242    1.112   .     S
C229   C228    1.525   1_554 S
C230   C231    1.397   .     A
C230   H233    1.084   .     S
C231   H234    1.082   .     S
C231   C249    1.400   .     A
C232   C226    1.403   1_554 A
C232   C249    1.405   1_554 A
C232   C59     1.479   1_554 S
H235   C249    1.083   1_554 S
C238   C239    1.523   .     S
C238   H245    1.112   .     S
C238   H246    1.112   .     S
C238   N247    1.461   .     S
C249   C232    1.405   1_556 A
C249   H235    1.083   1_556 S
C250   C251    1.408   .     A
C250   C255    1.406   .     A
C250   C256    1.513   .     S
C251   C252    1.396   .     A
C251   H257    1.081   .     S
C252   C253    1.395   .     A
C252   H258    1.082   .     S
C253   C254    1.403   .     A
C253   H259    1.083   .     S
C254   C255    1.406   .     A
C255   H260    1.083   1_556 S
C256   H261    1.114   .     S
C256   H262    1.110   .     S
C256   N285    1.468   .     S
H260   C255    1.083   1_554 S
C263   C264    1.406   .     A
C263   C265    1.507   .     S
C263   C268    1.406   .     A
C264   C270    1.405   .     A
C264   H274    1.084   1_554 S
C265   H275    1.114   .     S
C265   H282    1.111   .     S
C265   N286    1.468   .     S
C266   C267    1.525   .     S
C266   H281    1.112   .     S
C266   N286    1.466   .     S
C266   H278    1.113   1_554 S
C267   H279    1.112   .     S
C267   C277    1.525   1_554 S
C267   H280    1.112   1_554 S
C268   C269    1.395   .     A
C268   H271    1.079   .     S
C269   H272    1.082   .     S
C269   C287    1.393   .     A
C270   C287    1.404   .     A
C270   C4      1.471   1_554 S
H273   C287    1.084   .     S
H274   C264    1.084   1_556 S
C276   C277    1.520   .     S
C276   H283    1.112   .     S
C276   H284    1.113   .     S
C276   N285    1.465   .     S
C277   C267    1.525   1_556 S
H278   C266    1.113   1_556 S
H280   C267    1.112   1_556 S
C288   C289    1.405   .     A
C288   C293    1.406   .     A
C288   C294    1.503   .     S
C289   C290    1.395   .     A
C289   H295    1.083   .     S
C290   C291    1.395   .     A
C290   H296    1.082   .     S
C291   H297    1.080   .     S
C291   C292    1.401   1_554 A
C292   C291    1.401   1_556 A
C292   C293    1.403   1_556 A
C292   C44     1.464   1_556 S
C293   C292    1.403   1_554 A
C293   H298    1.084   1_554 S
C294   H299    1.113   .     S
C294   H300    1.112   .     S
C294   N323    1.465   .     S
H298   C293    1.084   1_556 S
C301   C302    1.404   .     A
C301   C303    1.503   .     S
C301   C306    1.404   .     A
C302   C308    1.402   .     A
C302   H312    1.084   .     S
C303   H313    1.112   .     S
C303   H320    1.113   .     S
C303   N324    1.463   .     S
C304   C305    1.524   .     S
C304   H316    1.113   .     S
C304   H319    1.114   .     S
C304   N324    1.463   .     S
C305   C315    1.525   .     S
C305   H317    1.112   .     S
C305   H318    1.112   1_556 S
C306   C307    1.398   .     A
C306   H309    1.083   .     S
C307   H310    1.082   .     S
C307   C325    1.398   .     A
C308   C325    1.401   .     A
H311   C325    1.083   .     S
C314   H321    1.112   .     S
C314   H322    1.113   .     S
C314   N323    1.461   .     S
C314   C315    1.523   1_554 S
C315   C314    1.523   1_556 S
H318   C305    1.112   1_554 S
C326   C327    1.406   .     A
C326   C331    1.407   .     A
C326   C332    1.504   .     S
C327   C328    1.395   .     A
C327   H333    1.083   .     S
C328   C329    1.394   .     A
C328   H334    1.082   .     S
C329   C330    1.403   .     A
C329   H335    1.084   .     S
C330   C331    1.403   .     A
C331   H336    1.084   .     S
C332   H337    1.115   .     S
C332   H338    1.111   .     S
C332   N361    1.468   .     S
C339   C340    1.408   .     A
C339   C341    1.503   .     S
C339   C344    1.406   .     A
C340   C346    1.403   1_554 A
C340   H350    1.083   1_554 S
C341   H351    1.113   .     S
C341   H358    1.111   .     S
C341   N362    1.466   .     S
C342   H354    1.112   .     S
C342   H357    1.114   .     S
C342   N362    1.465   .     S
C342   C343    1.524   1_554 S
C343   C353    1.528   .     S
C343   H355    1.113   .     S
C343   H356    1.112   .     S
C343   C342    1.524   1_556 S
C344   C345    1.395   .     A
C344   H347    1.083   .     S
C345   H348    1.082   .     S
C345   C363    1.394   .     A
C346   C340    1.403   1_556 A
C346   C363    1.402   1_556 A
H349   C363    1.084   .     S
H350   C340    1.083   1_556 S
C352   C353    1.523   .     S
C352   H359    1.113   .     S
C352   H360    1.113   .     S
C352   N361    1.463   .     S
C363   C346    1.402   1_554 A
C364   C365    1.404   .     A
C364   C369    1.408   .     A
C364   C370    1.506   .     S
C365   C366    1.398   .     A
C365   H371    1.083   .     S
C366   C367    1.397   .     A
C366   H372    1.082   .     S
C367   C368    1.398   .     A
C367   H373    1.082   .     S
C368   C369    1.405   .     A
C369   H374    1.084   .     S
C370   H375    1.114   .     S
C370   H376    1.113   .     S
C370   N399    1.467   .     S
C377   C378    1.406   .     A
C377   C379    1.505   .     S
C377   C382    1.404   .     A
C378   C384    1.406   1_556 A
C378   H388    1.084   1_556 S
C379   H389    1.112   .     S
C379   H396    1.113   .     S
C379   N400    1.464   .     S
C380   H392    1.113   .     S
C380   H395    1.113   .     S
C380   N400    1.464   .     S
C380   C381    1.527   1_556 S
C381   C391    1.530   .     S
C381   H393    1.112   .     S
C381   H394    1.112   .     S
C381   C380    1.527   1_554 S
C382   C383    1.397   .     A
C382   H385    1.083   .     S
C383   H386    1.083   .     S
C383   C401    1.396   .     A
C384   C378    1.406   1_554 A
C384   C401    1.401   1_554 A
H387   C401    1.078   .     S
H388   C378    1.084   1_554 S
C390   C391    1.527   .     S
C390   H397    1.113   .     S
C390   H398    1.113   .     S
C390   N399    1.465   .     S
C401   C384    1.401   1_556 A
