data_kag+N505+E59
_audit_creation_date              2025-01-21
_audit_creation_method            'Materials Studio'
_symmetry_space_group_name_H-M    'P1'
_symmetry_Int_Tables_number       1
_symmetry_cell_setting            triclinic
loop_
_symmetry_equiv_pos_as_xyz
  x,y,z
_cell_length_a                    42.6577
_cell_length_b                    38.6158
_cell_length_c                    21.8911
_cell_angle_alpha                 96.5421
_cell_angle_beta                  98.0940
_cell_angle_gamma                 113.9650
loop_
_atom_site_label
_atom_site_type_symbol
_atom_site_fract_x
_atom_site_fract_y
_atom_site_fract_z
_atom_site_U_iso_or_equiv
_atom_site_adp_type
_atom_site_occupancy
Yb0    Yb    0.51949   0.47666   0.92773   0.00000  Uiso   1.00
Yb1    Yb    0.46564   0.49734   0.09498   0.00000  Uiso   1.00
C2     C     0.42567   0.53171   0.08986   0.00000  Uiso   1.00
O3     O     0.48462   0.42833   0.85952   0.00000  Uiso   1.00
O4     O     0.50632   0.48655   0.83709   0.00000  Uiso   1.00
O5     O     0.47632   0.48445  -0.04253   0.00000  Uiso   1.00
O6     O     0.46526   0.52713   1.01469   0.00000  Uiso   1.00
O7     O     0.56847   0.48289   0.90917   0.00000  Uiso   1.00
O8     O     0.56296   0.52894  -0.03062   0.00000  Uiso   1.00
O9     O     0.52243   0.53061   0.10527   0.00000  Uiso   1.00
O10    O     0.49713   0.54582   0.17160   0.00000  Uiso   1.00
C11    C     0.48653   0.45011   0.81832   0.00000  Uiso   1.00
O12    O     0.52532   0.45176   0.01043   0.00000  Uiso   1.00
O13    O     0.51027   0.49248   1.06309   0.00000  Uiso   1.00
O14    O     0.45131   0.54006   0.06098   0.00000  Uiso   1.00
C15    C     0.47450   0.51666   0.96505   0.00000  Uiso   1.00
O16    O     0.42031   0.50314   1.11753   0.00000  Uiso   1.00
C17    C     0.58294   0.51741   0.94234   0.00000  Uiso   1.00
C18    C     0.52570   0.55311   0.15479   0.00000  Uiso   1.00
C19    C     0.51446   0.46139   0.05804   0.00000  Uiso   1.00
Yb20   Yb   -0.01977   0.53674   0.93849   0.00000  Uiso   1.00
Yb21   Yb    1.01159   0.45884   0.05916   0.00000  Uiso   1.00
C22    C     0.97469   0.39073   0.05784   0.00000  Uiso   1.00
O23    O    -0.03450   0.49649   0.85473   0.00000  Uiso   1.00
O24    O     0.94185   0.53735   0.86763   0.00000  Uiso   1.00
O25    O     0.93984   0.49559   0.97781   0.00000  Uiso   1.00
O26    O     0.97152   0.46403   0.99397   0.00000  Uiso   1.00
O27    O     0.01761   0.58693   0.91718   0.00000  Uiso   1.00
O28    O    -0.00590   0.58865   0.00024   0.00000  Uiso   1.00
O29    O     1.03110   0.50819   0.13020   0.00000  Uiso   1.00
O30    O     0.05229   0.46477   0.13134   0.00000  Uiso   1.00
C31    C     0.94330   0.50907   0.83238   0.00000  Uiso   1.00
O32    O     0.01982   0.52644  -0.00349   0.00000  Uiso   1.00
O33    O     0.04840   0.49078   0.00516   0.00000  Uiso   1.00
O34    O     0.97541   0.41777   0.09935   0.00000  Uiso   1.00
C35    C     0.94529   0.46993   1.00326   0.00000  Uiso   1.00
O36    O     0.99396   0.40098   1.01671   0.00000  Uiso   1.00
C37    C     0.01540   0.60703   0.96641   0.00000  Uiso   1.00
C38    C     0.05347   0.49713   0.15719   0.00000  Uiso   1.00
C39    C     0.04252   0.51611  -0.02067   0.00000  Uiso   1.00
Yb40   Yb    0.46592   0.96161   0.05882   0.00000  Uiso   1.00
Yb41   Yb    0.56547   0.01595   0.96470   0.00000  Uiso   1.00
C42    C     0.58278   0.07384   0.90852   0.00000  Uiso   1.00
O43    O     0.47889   1.00166   0.14183   0.00000  Uiso   1.00
O44    O     0.42579  -0.02437   0.08254   0.00000  Uiso   1.00
O45    O     0.47986   0.00846   0.00472   0.00000  Uiso   1.00
O46    O     0.53818   0.04025   0.01939   0.00000  Uiso   1.00
O47    O     0.44379   0.90909   0.09024   0.00000  Uiso   1.00
O48    O     0.43796   0.91162   0.98942   0.00000  Uiso   1.00
O49    O     0.54186  -0.00268   0.86564   0.00000  Uiso   1.00
O50    O     0.58561   0.98663   0.90298   0.00000  Uiso   1.00
C51    C     0.44728  -0.00126   0.13268   0.00000  Uiso   1.00
O52    O     0.51208   0.95141   1.06279   0.00000  Uiso   1.00
O53    O     0.52351   0.96433   0.97141   0.00000  Uiso   1.00
O54    O     0.55294   0.04473   0.89186   0.00000  Uiso   1.00
C55    C     0.50746   0.03604  -0.00380   0.00000  Uiso   1.00
O56    O     0.60325   0.07091  -0.04636   0.00000  Uiso   1.00
C57    C     0.43252   0.89094   0.03259   0.00000  Uiso   1.00
C58    C     0.56291   0.98243   0.85503   0.00000  Uiso   1.00
C59    C     0.53036   0.95321   1.02152   0.00000  Uiso   1.00
C60    C     0.50800   0.47231   0.61419   0.00000  Uiso   1.00
C61    C     0.54300   0.49030   0.53432   0.00000  Uiso   1.00
H62    H     0.54536   0.61782   0.41537   0.00000  Uiso   1.00
C63    C     0.50111   0.51645   0.54808   0.00000  Uiso   1.00
C64    C     0.49179   0.49592   0.59633   0.00000  Uiso   1.00
N65    N     0.56609   0.57750   0.25494   0.00000  Uiso   1.00
N66    N     0.48217   0.45879   0.70912   0.00000  Uiso   1.00
O67    O     0.53931   0.61165   0.29457   0.00000  Uiso   1.00
O68    O     0.50128   0.41893   0.66071   0.00000  Uiso   1.00
H69    H     0.55923   0.61281   0.19119   0.00000  Uiso   1.00
H70    H     0.58142   0.58428   0.16779   0.00000  Uiso   1.00
H71    H     0.53501   0.58658   0.50625   0.00000  Uiso   1.00
H72    H     0.54613   0.51574   0.31300   0.00000  Uiso   1.00
H73    H     0.53603   0.48487   0.40366   0.00000  Uiso   1.00
H74    H     0.57918   0.56020   0.26278   0.00000  Uiso   1.00
H75    H     0.54684   0.45203   0.59530   0.00000  Uiso   1.00
H76    H     0.46492   0.40425   0.73855   0.00000  Uiso   1.00
H77    H     0.43901   0.43009   0.75001   0.00000  Uiso   1.00
H78    H     0.56306   0.48795   0.51113   0.00000  Uiso   1.00
H79    H     0.47099   0.49758   0.61782   0.00000  Uiso   1.00
H80    H     0.48761   0.53373   0.53455   0.00000  Uiso   1.00
H81    H     0.48140   0.48563   0.71435   0.00000  Uiso   1.00
C82    C     0.54371   0.58892   0.41247   0.00000  Uiso   1.00
C83    C     0.55089   0.58780   0.30078   0.00000  Uiso   1.00
C84    C     0.55986   0.58432   0.19089   0.00000  Uiso   1.00
C85    C     0.53476   0.53333   0.46216   0.00000  Uiso   1.00
C86    C     0.54733   0.56969   0.35728   0.00000  Uiso   1.00
C87    C     0.53754   0.57097   0.46433   0.00000  Uiso   1.00
C88    C     0.54480   0.53208   0.35531   0.00000  Uiso   1.00
C89    C     0.53871   0.51418   0.40723   0.00000  Uiso   1.00
C90    C     0.53383   0.46992   0.58273   0.00000  Uiso   1.00
C91    C     0.49694   0.44837   0.66261   0.00000  Uiso   1.00
C92    C     0.46630   0.43352   0.75218   0.00000  Uiso   1.00
C93    C     0.52651   0.51349   0.51603   0.00000  Uiso   1.00
C94    C     0.04335   0.50383   0.36595   0.00000  Uiso   1.00
C95    C     0.03761   0.49786   0.47375   0.00000  Uiso   1.00
H96    H     0.95464   0.56204   0.58953   0.00000  Uiso   1.00
C97    C     0.99738   0.51451   0.40768   0.00000  Uiso   1.00
C98    C     1.01441   0.51286   0.35809   0.00000  Uiso   1.00
N99    N     0.94032   0.49467   0.72019   0.00000  Uiso   1.00
N100   N     0.06245   0.52272   0.26758   0.00000  Uiso   1.00
O101   O     0.91594   0.52639   0.66501   0.00000  Uiso   1.00
O102   O     0.07616   0.47988   0.31273   0.00000  Uiso   1.00
H103   H     0.90104   0.50420   0.76104   0.00000  Uiso   1.00
H104   H     0.90397   0.45983   0.76858   0.00000  Uiso   1.00
H105   H     0.98565   0.56060   0.50410   0.00000  Uiso   1.00
H106   H    -0.04081   0.45697   0.62984   0.00000  Uiso   1.00
H107   H    -0.00979   0.45589   0.54521   0.00000  Uiso   1.00
H108   H     0.95894   0.48355   0.72510   0.00000  Uiso   1.00
H109   H     0.07683   0.48918   0.43171   0.00000  Uiso   1.00
H110   H     0.09912   0.50858   0.22589   0.00000  Uiso   1.00
H111   H     0.09494   0.55056   0.20712   0.00000  Uiso   1.00
H112   H     0.04727   0.49245   0.51842   0.00000  Uiso   1.00
H113   H     1.00424   0.51777   0.31342   0.00000  Uiso   1.00
H114   H     0.97481   0.52091   0.40009   0.00000  Uiso   1.00
H115   H     0.05102   0.54205   0.26942   0.00000  Uiso   1.00
C116   C     0.96237   0.53878   0.58046   0.00000  Uiso   1.00
C117   C     0.93587   0.51092   0.66892   0.00000  Uiso   1.00
C118   C     0.91965   0.49095   0.76917   0.00000  Uiso   1.00
C119   C     0.99049   0.50827   0.51832   0.00000  Uiso   1.00
C120   C     0.95513   0.51016   0.61764   0.00000  Uiso   1.00
C121   C     0.97994   0.53789   0.53141   0.00000  Uiso   1.00
C122   C    -0.03456   0.48034   0.60400   0.00000  Uiso   1.00
C123   C    -0.01694   0.47953   0.55511   0.00000  Uiso   1.00
C124   C     0.05460   0.49617   0.42423   0.00000  Uiso   1.00
C125   C     0.06154   0.50129   0.31381   0.00000  Uiso   1.00
C126   C     0.07998   0.52094   0.21528   0.00000  Uiso   1.00
C127   C     0.00881   0.50703   0.46598   0.00000  Uiso   1.00
C128   C     0.52998   0.00442   0.65547   0.00000  Uiso   1.00
C129   C     0.51720   0.04162   0.58112   0.00000  Uiso   1.00
H130   H     0.39903   0.96040   0.36922   0.00000  Uiso   1.00
C131   C     0.48775   0.97185   0.55702   0.00000  Uiso   1.00
C132   C     0.50581   0.97033   0.61429   0.00000  Uiso   1.00
N133   N     0.45000   0.02017   0.24266   0.00000  Uiso   1.00
N134   N     0.53885   0.96932   0.74293   0.00000  Uiso   1.00
O135   O     0.39651   0.99137   0.27075   0.00000  Uiso   1.00
O136   O     0.57848   0.03048   0.73911   0.00000  Uiso   1.00
H137   H     0.40729   1.01029   0.16806   0.00000  Uiso   1.00
H138   H     0.44760   0.05196   0.17176   0.00000  Uiso   1.00
H139   H     0.42602   0.96125   0.47575   0.00000  Uiso   1.00
H140   H     0.49398   0.05678   0.35583   0.00000  Uiso   1.00
H141   H     0.52138   0.05609   0.46023   0.00000  Uiso   1.00
H142   H     0.47706   0.02926   0.25563   0.00000  Uiso   1.00
H143   H     0.55377   0.06689   0.66924   0.00000  Uiso   1.00
H144   H     0.58911  -0.02552   0.78217   0.00000  Uiso   1.00
H145   H     0.55296   0.93156   0.79049   0.00000  Uiso   1.00
H146   H     0.52186   0.06957   0.56944   0.00000  Uiso   1.00
H147   H     0.50161   0.94232   0.62506   0.00000  Uiso   1.00
H148   H     0.47018   0.94499   0.52559   0.00000  Uiso   1.00
H149   H     0.51234   0.94996   0.73205   0.00000  Uiso   1.00
C150   C     0.42559   0.98175   0.38890   0.00000  Uiso   1.00
C151   C     0.42838   1.00597   0.28732   0.00000  Uiso   1.00
C152   C     0.43633   0.02146   0.17814   0.00000  Uiso   1.00
C153   C     0.47591   1.00871   0.47650   0.00000  Uiso   1.00
C154   C     0.44446   1.00790   0.35318   0.00000  Uiso   1.00
C155   C     0.44116   0.98204   0.44974   0.00000  Uiso   1.00
C156   C     0.47883   0.03533   0.38076   0.00000  Uiso   1.00
C157   C     0.49443   0.03551   0.44141   0.00000  Uiso   1.00
C158   C     0.53535   0.04010   0.63840   0.00000  Uiso   1.00
C159   C     0.55078   0.00288   0.71448   0.00000  Uiso   1.00
C160   C     0.56212   0.96299   0.79145   0.00000  Uiso   1.00
C161   C     0.49340   0.00747   0.53944   0.00000  Uiso   1.00
C162   C     0.13704   0.50099   0.94072   0.00000  Uiso   1.00
C163   C     0.18499   0.48363   0.92894   0.00000  Uiso   1.00
H164   H     0.28393   0.49560   0.15120   0.00000  Uiso   1.00
C165   C     0.18347   0.51403   0.03077   0.00000  Uiso   1.00
C166   C     0.15203   0.51509   0.00502   0.00000  Uiso   1.00
N167   N     0.36770   0.53090   0.06711   0.00000  Uiso   1.00
N168   N     0.09562   0.53320  -0.06114   0.00000  Uiso   1.00
O169   O     0.35057   0.53459   0.15912   0.00000  Uiso   1.00
O170   O     0.08481   0.47947   0.86647   0.00000  Uiso   1.00
H171   H     0.41471   0.57800   0.06456   0.00000  Uiso   1.00
H172   H     0.40991   0.56941   0.14202   0.00000  Uiso   1.00
H173   H     0.22393   0.48400   0.10561   0.00000  Uiso   1.00
H174   H     0.31712   0.53484   0.98396   0.00000  Uiso   1.00
H175   H     0.25751   0.52242   0.93854   0.00000  Uiso   1.00
H176   H     0.36041   0.51933   0.01903   0.00000  Uiso   1.00
H177   H     0.14223   0.47286   0.85376   0.00000  Uiso   1.00
H178   H     0.04429   0.51048   0.88181   0.00000  Uiso   1.00
H179   H     0.06144   0.55939  -0.07677   0.00000  Uiso   1.00
H180   H     0.19737   0.47127   0.89878   0.00000  Uiso   1.00
H181   H     0.13953   0.52695   0.03561   0.00000  Uiso   1.00
H182   H     0.19487   0.52604   0.08010   0.00000  Uiso   1.00
H183   H     0.11462   0.55672  -0.02815   0.00000  Uiso   1.00
C184   C     0.27837   0.50106   0.10435   0.00000  Uiso   1.00
C185   C     0.34244   0.52717   0.10175   0.00000  Uiso   1.00
C186   C     0.40506   0.55493   0.09255   0.00000  Uiso   1.00
C187   C     0.23602   0.50214   0.01838   0.00000  Uiso   1.00
C188   C     0.30537   0.51551   0.07095   0.00000  Uiso   1.00
C189   C     0.24408   0.49453   0.07843   0.00000  Uiso   1.00
C190   C     0.29702   0.52235   0.01036   0.00000  Uiso   1.00
C191   C     0.26275   0.51550   0.98432   0.00000  Uiso   1.00
C192   C     0.15341   0.48440   0.90329   0.00000  Uiso   1.00
C193   C     0.10436   0.50323   0.91263   0.00000  Uiso   1.00
C194   C     0.05999   0.53040  -0.07323   0.00000  Uiso   1.00
C195   C     0.20067   0.49903  -0.00728   0.00000  Uiso   1.00
C196   C     0.67950   0.19987   0.91802   0.00000  Uiso   1.00
C197   C     0.72514   0.26543   0.94056   0.00000  Uiso   1.00
H198   H     0.84444   0.30159   0.14268   0.00000  Uiso   1.00
C199   C     0.73507   0.21745  -0.01109   0.00000  Uiso   1.00
C200   C     0.70168   0.18979   0.95844   0.00000  Uiso   1.00
N201   N     0.91557   0.34072   0.03837   0.00000  Uiso   1.00
N202   N     0.62615   0.13959   0.91036   0.00000  Uiso   1.00
O203   O     0.90692   0.35146   0.13639   0.00000  Uiso   1.00
O204   O     0.63229   0.17331   0.83213   0.00000  Uiso   1.00
H205   H     0.95821   0.34285   0.10507   0.00000  Uiso   1.00
H206   H     0.95917   0.33079   1.02411   0.00000  Uiso   1.00
H207   H     0.78155   0.26535   0.10097   0.00000  Uiso   1.00
H208   H     0.85721   0.34356   0.96891   0.00000  Uiso   1.00
H209   H     0.79464   0.30604   0.92640   0.00000  Uiso   1.00
H210   H     0.90497   0.33211   0.99023   0.00000  Uiso   1.00
H211   H     0.67526   0.24715   0.87849   0.00000  Uiso   1.00
H212   H     0.59371   0.09926   0.82790   0.00000  Uiso   1.00
H213   H     0.57178   0.11887  -0.12321   0.00000  Uiso   1.00
H214   H     0.73414   0.29497   0.93357   0.00000  Uiso   1.00
H215   H     0.69383   0.16030  -0.03489   0.00000  Uiso   1.00
H216   H     0.75177   0.20821   0.01813   0.00000  Uiso   1.00
H217   H     0.63475   0.14067  -0.04205   0.00000  Uiso   1.00
C218   C     0.83375   0.30352   0.09597   0.00000  Uiso   1.00
C219   C     0.89436   0.34037   0.08026   0.00000  Uiso   1.00
C220   C     0.95257   0.34936   0.05768   0.00000  Uiso   1.00
C221   C     0.78341   0.28219   0.00997   0.00000  Uiso   1.00
C222   C     0.85591   0.32434   0.05833   0.00000  Uiso   1.00
C223   C     0.79785   0.28259   0.07198   0.00000  Uiso   1.00
C224   C     0.84104   0.32661  -0.00175   0.00000  Uiso   1.00
C225   C     0.80509   0.30565   0.97423   0.00000  Uiso   1.00
C226   C     0.69161   0.23825   0.90921   0.00000  Uiso   1.00
C227   C     0.64455   0.17028   0.88396   0.00000  Uiso   1.00
C228   C     0.59244   0.10832   0.87718   0.00000  Uiso   1.00
C229   C     0.74689   0.25439   0.98044   0.00000  Uiso   1.00
C230   C     0.69386   0.50969   0.94889   0.00000  Uiso   1.00
C231   C     0.73455   0.48266   0.92641   0.00000  Uiso   1.00
H232   H     0.81862   0.45684   0.13342   0.00000  Uiso   1.00
C233   C     0.73827   0.51072   1.03329   0.00000  Uiso   1.00
C234   C     0.71004   0.51922   1.01289   0.00000  Uiso   1.00
N235   N     0.88739   0.44880   1.02791   0.00000  Uiso   1.00
N236   N     0.64367   0.52537   0.96307   0.00000  Uiso   1.00
O237   O     0.88288   0.46731   0.12879   0.00000  Uiso   1.00
O238   O     0.66209   0.52657   0.87172   0.00000  Uiso   1.00
H239   H     0.93439   0.46150   0.09419   0.00000  Uiso   1.00
H240   H     0.91792   0.41793   1.03581   0.00000  Uiso   1.00
H241   H     0.76755   0.46873   0.09847   0.00000  Uiso   1.00
H242   H     0.85547   0.48672   0.96439   0.00000  Uiso   1.00
H243   H     0.80521   0.50012   0.93057   0.00000  Uiso   1.00
H244   H     0.87357   0.43756   0.98145   0.00000  Uiso   1.00
H245   H     0.69478   0.48387   0.85633   0.00000  Uiso   1.00
H246   H     0.62317   0.55357   0.90075   0.00000  Uiso   1.00
H247   H     0.62836   0.57024   0.98276   0.00000  Uiso   1.00
H248   H     0.74324   0.46802   0.89211   0.00000  Uiso   1.00
H249   H     0.70189   0.53453   0.04709   0.00000  Uiso   1.00
H250   H     0.75070   0.51934   0.08263   0.00000  Uiso   1.00
H251   H     0.64434   0.51709   0.00685   0.00000  Uiso   1.00
C252   C     0.81583   0.46610   0.08891   0.00000  Uiso   1.00
C253   C     0.87148   0.46256   0.07265   0.00000  Uiso   1.00
C254   C     0.92175   0.44840   1.04413   0.00000  Uiso   1.00
C255   C     0.78204   0.48502   1.01139   0.00000  Uiso   1.00
C256   C     0.84076   0.47027   0.05130   0.00000  Uiso   1.00
C257   C     0.78669   0.47313   0.06902   0.00000  Uiso   1.00
C258   C     0.83628   0.48231   0.99379   0.00000  Uiso   1.00
C259   C     0.80739   0.48986   0.97429   0.00000  Uiso   1.00
C260   C     0.70651   0.49135   0.90598   0.00000  Uiso   1.00
C261   C     0.66556   0.52093   0.92549   0.00000  Uiso   1.00
C262   C     0.62060   0.54399   0.94651   0.00000  Uiso   1.00
C263   C     0.75110   0.49266   0.99021   0.00000  Uiso   1.00
C264   C     0.13269   0.69848   0.96660   0.00000  Uiso   1.00
C265   C     0.18777   0.73065   0.93274   0.00000  Uiso   1.00
H266   H     0.31708   0.74581   0.08597   0.00000  Uiso   1.00
C267   C     0.18859   0.71603   0.03729   0.00000  Uiso   1.00
C268   C     0.15192   0.69937   1.02507   0.00000  Uiso   1.00
N269   N     0.37775   0.83247   0.00846   0.00000  Uiso   1.00
N270   N     0.07357   0.66009   0.98896   0.00000  Uiso   1.00
O271   O     0.37489   0.80475   0.09360   0.00000  Uiso   1.00
O272   O     0.07984   0.69384   0.91097   0.00000  Uiso   1.00
H273   H     0.42743   0.83639   0.05336   0.00000  Uiso   1.00
H274   H     0.42239   0.83863   0.97187   0.00000  Uiso   1.00
H275   H     0.25333   0.71246   0.06167   0.00000  Uiso   1.00
H276   H     0.31244   0.83095   0.97713   0.00000  Uiso   1.00
H277   H     0.24903   0.79818   0.95433   0.00000  Uiso   1.00
H278   H     0.36460   0.83647   0.96790   0.00000  Uiso   1.00
H279   H     0.13735   0.71384   0.87492   0.00000  Uiso   1.00
H280   H     0.02634   0.66302   0.94712   0.00000  Uiso   1.00
H281   H     0.03170   0.66080   0.02899   0.00000  Uiso   1.00
H282   H     0.20102   0.74215   0.89594   0.00000  Uiso   1.00
H283   H     0.13908   0.68856   0.06258   0.00000  Uiso   1.00
H284   H     0.20250   0.71712   0.08336   0.00000  Uiso   1.00
H285   H     0.08471   0.64877   0.02211   0.00000  Uiso   1.00
C286   C     0.30254   0.75751   0.05700   0.00000  Uiso   1.00
C287   C     0.35921   0.80995   0.04703   0.00000  Uiso   1.00
C288   C     0.41591   0.84785   0.01650   0.00000  Uiso   1.00
C289   C     0.24597   0.75246   0.00576   0.00000  Uiso   1.00
C290   C     0.32019   0.79074   0.03266   0.00000  Uiso   1.00
C291   C     0.26594   0.73848   0.04339   0.00000  Uiso   1.00
C292   C     0.30017   0.80491  -0.00460   0.00000  Uiso   1.00
C293   C     0.26356   0.78602   0.98221   0.00000  Uiso   1.00
C294   C     0.15119   0.71407   0.92053   0.00000  Uiso   1.00
C295   C     0.09383   0.68392   0.95374   0.00000  Uiso   1.00
C296   C     0.03609   0.64980   0.98329   0.00000  Uiso   1.00
C297   C     0.20698   0.73252   0.99166   0.00000  Uiso   1.00
C298   C     0.47491   0.63796   0.94377   0.00000  Uiso   1.00
C299   C     0.48118   0.70122   0.92584   0.00000  Uiso   1.00
H300   H     0.57799   0.83243   0.11372   0.00000  Uiso   1.00
C301   C     0.49550   0.69167   0.03173   0.00000  Uiso   1.00
C302   C     0.48598   0.65274   1.00866   0.00000  Uiso   1.00
N303   N     0.55217   0.90490   1.02147   0.00000  Uiso   1.00
N304   N     0.48863   0.58155   0.94496   0.00000  Uiso   1.00
O305   O     0.57186   0.89832   0.12107   0.00000  Uiso   1.00
O306   O     0.44516   0.57993   0.87161   0.00000  Uiso   1.00
H307   H     0.57518   0.95852   0.08628   0.00000  Uiso   1.00
H308   H     0.58163   0.96093   1.00765   0.00000  Uiso   1.00
H309   H     0.55246   0.76240   0.08068   0.00000  Uiso   1.00
H310   H     0.49278   0.83630   0.98707   0.00000  Uiso   1.00
H311   H     0.46717   0.76626   0.95374   0.00000  Uiso   1.00
H312   H     0.54207   0.89115   0.97446   0.00000  Uiso   1.00
H313   H     0.46304   0.65151   0.85260   0.00000  Uiso   1.00
H314   H     0.51175   0.54662   0.91169   0.00000  Uiso   1.00
H315   H     0.46668   0.53023  -0.12595   0.00000  Uiso   1.00
H316   H     0.47980   0.71959   0.89268   0.00000  Uiso   1.00
H317   H     0.48746   0.63430   0.04161   0.00000  Uiso   1.00
H318   H     0.50433   0.70240   0.08190   0.00000  Uiso   1.00
H319   H     0.50892   0.59763  -0.01622   0.00000  Uiso   1.00
C320   C     0.55362   0.81819   0.07920   0.00000  Uiso   1.00
C321   C     0.55483   0.88239   0.06814   0.00000  Uiso   1.00
C322   C     0.56238   0.94634   1.03609   0.00000  Uiso   1.00
C323   C     0.50796   0.75876   1.01403   0.00000  Uiso   1.00
C324   C     0.53786   0.83979   0.05162   0.00000  Uiso   1.00
C325   C     0.53890   0.77810   0.06043   0.00000  Uiso   1.00
C326   C     0.50618   0.82043   1.00727   0.00000  Uiso   1.00
C327   C     0.49144   0.78034   0.98846   0.00000  Uiso   1.00
C328   C     0.47164   0.66228   0.90280   0.00000  Uiso   1.00
C329   C     0.46825   0.59788   0.91815   0.00000  Uiso   1.00
C330   C     0.48567   0.54331   0.91968   0.00000  Uiso   1.00
C331   C     0.49409   0.71658   0.99044   0.00000  Uiso   1.00
C332   C     0.49676   0.15111   0.04138   0.00000  Uiso   1.00
C333   C     0.50199   0.20852   0.10934   0.00000  Uiso   1.00
H334   H     0.42261   0.29123   1.01987   0.00000  Uiso   1.00
C335   C     0.47157   0.19237   0.00078   0.00000  Uiso   1.00
C336   C     0.47777   0.15946  -0.00805   0.00000  Uiso   1.00
N337   N     0.50413   0.39860   0.08581   0.00000  Uiso   1.00
N338   N     0.48799   0.08716  -0.01524   0.00000  Uiso   1.00
O339   O     0.44440   0.36327   1.07056   0.00000  Uiso   1.00
O340   O     0.53628   0.12386   0.05875   0.00000  Uiso   1.00
H341   H     0.47851   0.43292   1.11444   0.00000  Uiso   1.00
H342   H     0.52384   0.45085   0.15090   0.00000  Uiso   1.00
H343   H     0.42683   0.22966   1.01392   0.00000  Uiso   1.00
H344   H     0.52866   0.34980   0.12852   0.00000  Uiso   1.00
H345   H     0.53317   0.28878   0.12070   0.00000  Uiso   1.00
H346   H     0.52774   0.39805   0.07955   0.00000  Uiso   1.00
H347   H     0.52310   0.17001   0.13933   0.00000  Uiso   1.00
H348   H     0.52889   0.08292  -0.05298   0.00000  Uiso   1.00
H349   H     0.48625   0.04651  -0.09063   0.00000  Uiso   1.00
H350   H     0.51161   0.22720   0.15516   0.00000  Uiso   1.00
H351   H     0.46934   0.14182   0.94540   0.00000  Uiso   1.00
H352   H     0.45846   0.19909   0.96096   0.00000  Uiso   1.00
H353   H     0.46222   0.08143   0.96503   0.00000  Uiso   1.00
C354   C     0.44684   0.29100   1.04229   0.00000  Uiso   1.00
C355   C     0.47313   0.36293   1.07658   0.00000  Uiso   1.00
C356   C     0.50455   0.43623   0.10593   0.00000  Uiso   1.00
C357   C     0.48040   0.25439   0.06650   0.00000  Uiso   1.00
C358   C     0.47558   0.32557   1.07353   0.00000  Uiso   1.00
C359   C     0.44928   0.25580   1.03861   0.00000  Uiso   1.00
C360   C     0.50636   0.32396   0.10259   0.00000  Uiso   1.00
C361   C     0.50876   0.28882   0.09904   0.00000  Uiso   1.00
C362   C     0.50839   0.17572   0.10041   0.00000  Uiso   1.00
C363   C     0.50800   0.11973   0.02964   0.00000  Uiso   1.00
C364   C     0.50321   0.06334  -0.04432   0.00000  Uiso   1.00
C365   C     0.48404   0.21757   0.05927   0.00000  Uiso   1.00
loop_
_geom_bond_atom_site_label_1
_geom_bond_atom_site_label_2
_geom_bond_distance
_geom_bond_site_symmetry_2
_ccdc_geom_bond_type
Yb0    O3      2.100   .     S
Yb0    O4      2.105   .     S
Yb0    O7      2.108   .     S
Yb0    O5      2.156   1_556 S
Yb0    O8      2.100   1_556 S
Yb0    O12     2.175   1_556 S
Yb1    O9      2.196   .     S
Yb1    O10     2.175   .     S
Yb1    O14     2.150   .     S
Yb1    O6      2.209   1_554 S
Yb1    O13     2.187   1_554 S
Yb1    O16     2.151   1_554 S
C2     O14     1.286   .     A
C2     C186    1.491   .     S
C2     O16     1.274   1_554 A
O3     C11     1.291   .     A
O4     C11     1.291   .     A
O5     Yb0     2.156   1_554 S
O5     C15     1.271   1_554 A
O6     C15     1.284   .     A
O6     Yb1     2.209   1_556 S
O7     C17     1.292   .     A
O8     Yb0     2.100   1_554 S
O8     C17     1.290   1_554 A
O9     C18     1.262   .     A
O10    C18     1.254   .     A
C11    C92     1.496   .     S
O12    C19     1.276   .     A
O12    Yb0     2.175   1_554 S
O13    Yb1     2.187   1_556 S
O13    C19     1.279   1_556 A
C15    C330    1.497   .     S
C15    O5      1.271   1_556 A
O16    Yb1     2.151   1_556 S
O16    C2      1.274   1_556 A
C17    C262    1.497   .     S
C17    O8      1.290   1_556 A
C18    C84     1.494   .     S
C19    C356    1.498   .     S
C19    O13     1.279   1_554 A
Yb20   O23     2.099   .     S
Yb20   O27     2.103   .     S
Yb20   O24     2.100   1_455 S
Yb20   O25     2.177   1_455 S
Yb20   O28     2.095   1_556 S
Yb20   O32     2.163   1_556 S
Yb21   O29     2.101   .     S
Yb21   O34     2.094   .     S
Yb21   O26     2.157   1_554 S
Yb21   O30     2.094   1_655 S
Yb21   O33     2.160   1_655 S
Yb21   O36     2.094   1_554 S
C22    O34     1.291   .     A
C22    C220    1.488   .     S
C22    O36     1.292   1_554 A
O23    C31     1.292   1_455 A
O24    C31     1.292   .     A
O24    Yb20    2.100   1_655 S
O25    C35     1.274   .     A
O25    Yb20    2.177   1_655 S
O26    C35     1.267   .     A
O26    Yb21    2.157   1_556 S
O27    C37     1.292   .     A
O28    Yb20    2.095   1_554 S
O28    C37     1.290   1_554 A
O29    C38     1.293   1_655 A
O30    C38     1.290   .     A
O30    Yb21    2.094   1_455 S
C31    C118    1.495   .     S
C31    O23     1.292   1_655 A
O32    C39     1.273   .     A
O32    Yb20    2.163   1_554 S
O33    C39     1.275   .     A
O33    Yb21    2.160   1_455 S
C35    C254    1.498   .     S
O36    Yb21    2.094   1_556 S
O36    C22     1.292   1_556 A
C37    C296    1.493   .     S
C37    O28     1.290   1_556 A
C38    C126    1.492   .     S
C38    O29     1.293   1_455 A
C39    C194    1.495   .     S
Yb40   O43     2.093   .     S
Yb40   O47     2.103   .     S
Yb40   O44     2.105   1_565 S
Yb40   O45     2.200   1_565 S
Yb40   O48     2.100   1_554 S
Yb40   O52     2.152   1_554 S
Yb41   O49     2.162   .     S
Yb41   O54     2.170   .     S
Yb41   O46     2.166   1_556 S
Yb41   O50     2.148   1_545 S
Yb41   O53     2.107   1_545 S
Yb41   O56     2.147   1_556 S
C42    O54     1.277   .     A
C42    C228    1.502   .     S
C42    O56     1.270   1_556 A
O43    C51     1.291   1_565 A
O44    C51     1.293   .     A
O44    Yb40    2.105   1_545 S
O45    C55     1.282   .     A
O45    Yb40    2.200   1_545 S
O46    C55     1.274   .     A
O46    Yb41    2.166   1_554 S
O47    C57     1.292   .     A
O48    Yb40    2.100   1_556 S
O48    C57     1.292   1_556 A
O49    C58     1.280   1_545 A
O50    C58     1.270   .     A
O50    Yb41    2.148   1_565 S
C51    C152    1.498   .     S
C51    O43     1.291   1_545 A
O52    C59     1.264   .     A
O52    Yb40    2.152   1_556 S
O53    C59     1.262   .     A
O53    Yb41    2.107   1_565 S
C55    C364    1.501   .     S
O56    Yb41    2.147   1_554 S
O56    C42     1.270   1_554 A
C57    C288    1.494   .     S
C57    O48     1.292   1_554 A
C58    C160    1.493   .     S
C58    O49     1.280   1_565 A
C59    C322    1.493   .     S
C60    C64     1.407   .     A
C60    C90     1.406   .     A
C60    C91     1.487   .     S
C61    H78     1.083   .     S
C61    C90     1.397   .     A
C61    C93     1.404   .     A
H62    C82     1.083   .     S
C63    C64     1.398   .     A
C63    H80     1.083   .     S
C63    C93     1.406   .     A
C64    H79     1.081   .     S
N65    H74     1.044   .     S
N65    C83     1.374   .     S
N65    C84     1.463   .     S
N66    H81     1.044   .     S
N66    C91     1.374   .     S
N66    C92     1.467   .     S
O67    C83     1.221   .     D
O68    C91     1.221   .     D
H69    C84     1.111   .     S
H70    C84     1.111   .     S
H71    C87     1.083   .     S
H72    C88     1.082   .     S
H73    C89     1.083   .     S
H75    C90     1.083   .     S
H76    C92     1.111   .     S
H77    C92     1.110   .     S
C82    C86     1.406   .     A
C82    C87     1.398   .     A
C83    C86     1.485   .     S
C85    C87     1.404   .     A
C85    C89     1.406   .     A
C85    C93     1.485   .     S
C86    C88     1.407   .     A
C88    C89     1.398   .     A
C94    C124    1.405   .     A
C94    C125    1.483   .     S
C94    C98     1.407   1_455 A
C95    H112    1.083   .     S
C95    C124    1.396   .     A
C95    C127    1.404   .     A
H96    C116    1.083   .     S
C97    C98     1.398   .     A
C97    H114    1.083   .     S
C97    C127    1.405   1_655 A
C98    H113    1.082   .     S
C98    C94     1.407   1_655 A
N99    H108    1.044   .     S
N99    C117    1.373   .     S
N99    C118    1.465   .     S
N100   H115    1.044   .     S
N100   C125    1.374   .     S
N100   C126    1.463   .     S
O101   C117    1.221   .     D
O102   C125    1.221   .     D
H103   C118    1.111   .     S
H104   C118    1.110   .     S
H105   C121    1.083   .     S
H106   C122    1.081   .     S
H107   C123    1.083   .     S
H109   C124    1.083   .     S
H110   C126    1.112   .     S
H111   C126    1.110   .     S
C116   C120    1.406   .     A
C116   C121    1.398   .     A
C117   C120    1.486   .     S
C119   C121    1.404   .     A
C119   C123    1.404   1_655 A
C119   C127    1.482   1_655 S
C120   C122    1.407   1_655 A
C122   C123    1.396   .     A
C122   C120    1.407   1_455 A
C123   C119    1.404   1_455 A
C127   C97     1.405   1_455 A
C127   C119    1.482   1_455 S
C128   C158    1.406   .     A
C128   C159    1.482   .     S
C128   C132    1.405   1_545 A
C129   H146    1.083   .     S
C129   C158    1.398   .     A
C129   C161    1.407   .     A
H130   C150    1.083   .     S
C131   C132    1.396   .     A
C131   H148    1.083   .     S
C131   C161    1.405   1_565 A
C132   H147    1.082   .     S
C132   C128    1.405   1_565 A
N133   H142    1.045   .     S
N133   C152    1.465   .     S
N133   C151    1.440   1_545 S
N134   H149    1.045   .     S
N134   C160    1.460   .     S
N134   C159    1.437   1_565 S
O135   C151    1.221   .     D
O136   C159    1.221   .     D
H137   C152    1.112   1_565 S
H138   C152    1.111   .     S
H139   C155    1.083   .     S
H140   C156    1.081   .     S
H141   C157    1.083   .     S
H143   C158    1.084   .     S
H144   C160    1.111   1_545 S
H145   C160    1.110   .     S
C150   C154    1.406   .     A
C150   C155    1.399   .     A
C151   C154    1.487   .     S
C151   N133    1.440   1_565 S
C152   H137    1.112   1_545 S
C153   C155    1.407   .     A
C153   C157    1.405   1_565 A
C153   C161    1.487   1_565 S
C154   C156    1.407   1_565 A
C156   C157    1.397   .     A
C156   C154    1.407   1_545 A
C157   C153    1.405   1_545 A
C159   N134    1.437   1_545 S
C160   H144    1.111   1_565 S
C161   C131    1.405   1_545 A
C161   C153    1.487   1_545 S
C162   C192    1.405   .     A
C162   C193    1.482   .     S
C162   C166    1.406   1_556 A
C163   H180    1.083   .     S
C163   C192    1.398   .     A
C163   C195    1.405   1_556 A
H164   C184    1.084   .     S
C165   C166    1.398   .     A
C165   H182    1.083   .     S
C165   C195    1.405   .     A
C166   H181    1.082   .     S
C166   C162    1.406   1_554 A
N167   H176    1.045   .     S
N167   C185    1.373   .     S
N167   C186    1.464   .     S
N168   H183    1.044   .     S
N168   C194    1.463   .     S
N168   C193    1.438   1_554 S
O169   C185    1.222   .     D
O170   C193    1.220   .     D
H171   C186    1.112   .     S
H172   C186    1.111   .     S
H173   C189    1.083   .     S
H174   C190    1.081   1_556 S
H175   C191    1.083   .     S
H177   C192    1.083   .     S
H178   C194    1.110   1_556 S
H179   C194    1.108   .     S
C184   C188    1.407   .     A
C184   C189    1.400   .     A
C185   C188    1.486   .     S
C187   C189    1.405   .     A
C187   C195    1.485   .     S
C187   C191    1.404   1_554 A
C188   C190    1.407   .     A
C190   H174    1.081   1_554 S
C190   C191    1.396   1_554 A
C191   C187    1.404   1_556 A
C191   C190    1.396   1_556 A
C193   N168    1.438   1_556 S
C194   H178    1.110   1_554 S
C195   C163    1.405   1_554 A
C196   C200    1.404   .     A
C196   C226    1.404   .     A
C196   C227    1.481   .     S
C197   H214    1.083   .     S
C197   C226    1.399   .     A
C197   C229    1.408   .     A
H198   C218    1.083   .     S
C199   H216    1.083   .     S
C199   C200    1.396   1_554 A
C199   C229    1.351   1_554 D
C200   C199    1.396   1_556 A
C200   H215    1.083   1_556 S
N201   C219    1.373   .     S
N201   C220    1.461   .     S
N201   H210    1.044   1_554 S
N202   C227    1.372   .     S
N202   C228    1.466   .     S
N202   H217    1.045   1_556 S
O203   C219    1.220   .     D
O204   C227    1.219   .     D
H205   C220    1.111   .     S
H206   C220    1.112   1_556 S
H207   C223    1.083   .     S
H208   C224    1.082   1_556 S
H209   C225    1.083   .     S
H210   N201    1.044   1_556 S
H211   C226    1.083   .     S
H212   C228    1.111   .     S
H213   C228    1.111   1_554 S
H215   C200    1.083   1_554 S
H217   N202    1.045   1_554 S
C218   C222    1.404   .     A
C218   C223    1.395   .     A
C219   C222    1.480   .     S
C220   H206    1.112   1_554 S
C221   C223    1.405   .     A
C221   C225    1.404   1_554 A
C221   C229    1.482   1_554 S
C222   C224    1.406   .     A
C224   H208    1.082   1_554 S
C224   C225    1.397   1_554 A
C225   C221    1.404   1_556 A
C225   C224    1.397   1_556 A
C228   H213    1.111   1_556 S
C229   C199    1.351   1_556 D
C229   C221    1.482   1_556 S
C230   C234    1.407   .     A
C230   C260    1.406   .     A
C230   C261    1.487   .     S
C231   H248    1.083   .     S
C231   C260    1.397   .     A
C231   C263    1.406   .     A
H232   C252    1.083   .     S
C233   C234    1.400   .     A
C233   C263    1.407   .     A
C233   H250    1.083   1_556 S
C234   H249    1.082   1_556 S
N235   H244    1.045   .     S
N235   C254    1.465   .     S
N235   C253    1.437   1_556 S
N236   C261    1.376   .     S
N236   C262    1.467   .     S
N236   H251    1.044   1_556 S
O237   C253    1.220   .     D
O238   C261    1.221   .     D
H239   C254    1.111   1_554 S
H240   C254    1.110   .     S
H241   C257    1.082   .     S
H242   C258    1.083   .     S
H243   C259    1.083   .     S
H245   C260    1.083   .     S
H246   C262    1.111   .     S
H247   C262    1.112   .     S
H249   C234    1.082   1_554 S
H250   C233    1.083   1_554 S
H251   N236    1.044   1_554 S
C252   C256    1.405   .     A
C252   C257    1.399   .     A
C253   C256    1.483   .     S
C253   N235    1.437   1_554 S
C254   H239    1.111   1_556 S
C255   C259    1.408   .     A
C255   C263    1.490   .     S
C255   C257    1.406   1_556 A
C256   C258    1.405   1_554 A
C257   C255    1.406   1_554 A
C258   C259    1.399   .     A
C258   C256    1.405   1_556 A
C264   C268    1.408   .     A
C264   C294    1.407   .     A
C264   C295    1.490   .     S
C265   H282    1.083   .     S
C265   C294    1.396   .     A
C265   C297    1.405   .     A
H266   C286    1.083   .     S
C267   H284    1.083   .     S
C267   C268    1.399   1_554 A
C267   C297    1.407   1_554 A
C268   C267    1.399   1_556 A
C268   H283    1.080   1_556 S
N269   C287    1.375   .     S
N269   C288    1.464   .     S
N269   H278    1.043   1_554 S
N270   C295    1.375   .     S
N270   C296    1.465   .     S
N270   H285    1.043   1_556 S
O271   C287    1.221   .     D
O272   C295    1.220   .     D
H273   C288    1.111   .     S
H274   C288    1.111   1_556 S
H275   C291    1.083   .     S
H276   C292    1.081   1_556 S
H277   C293    1.083   .     S
H278   N269    1.043   1_556 S
H279   C294    1.083   .     S
H280   C296    1.110   .     S
H281   C296    1.112   1_554 S
H283   C268    1.080   1_554 S
H285   N270    1.043   1_554 S
C286   C290    1.407   .     A
C286   C291    1.397   .     A
C287   C290    1.489   .     S
C288   H274    1.111   1_554 S
C289   C291    1.405   .     A
C289   C293    1.407   1_554 A
C289   C297    1.489   1_554 S
C290   C292    1.407   .     A
C292   H276    1.081   1_554 S
C292   C293    1.398   1_554 A
C293   C289    1.407   1_556 A
C293   C292    1.398   1_556 A
C296   H281    1.112   1_556 S
C297   C267    1.407   1_556 A
C297   C289    1.489   1_556 S
C298   C302    1.405   .     A
C298   C328    1.403   .     A
C298   C329    1.480   .     S
C299   H316    1.083   .     S
C299   C328    1.397   .     A
C299   C331    1.407   .     A
H300   C320    1.083   .     S
C301   H318    1.083   .     S
C301   C302    1.397   1_554 A
C301   C331    1.406   1_554 A
C302   C301    1.397   1_556 A
C302   H317    1.083   1_556 S
N303   H312    1.045   .     S
N303   C322    1.459   .     S
N303   C321    1.436   1_556 S
N304   C329    1.373   .     S
N304   C330    1.465   .     S
N304   H319    1.045   1_556 S
O305   C321    1.219   .     D
O306   C329    1.221   .     D
H307   C322    1.109   1_554 S
H308   C322    1.108   .     S
H309   C325    1.083   .     S
H310   C326    1.083   .     S
H311   C327    1.083   .     S
H313   C328    1.083   .     S
H314   C330    1.109   .     S
H315   C330    1.111   1_554 S
H317   C302    1.083   1_554 S
H319   N304    1.045   1_554 S
C320   C324    1.403   .     A
C320   C325    1.397   .     A
C321   C324    1.478   .     S
C321   N303    1.436   1_554 S
C322   H307    1.109   1_556 S
C323   C327    1.406   .     A
C323   C331    1.486   .     S
C323   C325    1.407   1_556 A
C324   C326    1.404   1_554 A
C325   C323    1.407   1_554 A
C326   C327    1.398   .     A
C326   C324    1.404   1_556 A
C330   H315    1.111   1_556 S
C331   C301    1.406   1_556 A
C332   C336    1.406   .     A
C332   C362    1.406   .     A
C332   C363    1.484   .     S
C333   H350    1.083   .     S
C333   C362    1.399   .     A
C333   C365    1.406   .     A
H334   C354    1.084   .     S
C335   C336    1.398   .     A
C335   C365    1.405   .     A
C335   H352    1.083   1_554 S
C336   H351    1.082   1_554 S
N337   H346    1.044   .     S
N337   C356    1.462   .     S
N337   C355    1.438   1_554 S
N338   C363    1.373   .     S
N338   C364    1.463   .     S
N338   H353    1.045   1_554 S
O339   C355    1.220   .     D
O340   C363    1.221   .     D
H341   C356    1.110   1_556 S
H342   C356    1.110   .     S
H343   C359    1.083   .     S
H344   C360    1.082   .     S
H345   C361    1.082   .     S
H347   C362    1.083   .     S
H348   C364    1.107   .     S
H349   C364    1.111   .     S
H351   C336    1.082   1_556 S
H352   C335    1.083   1_556 S
H353   N338    1.045   1_556 S
C354   C358    1.407   .     A
C354   C359    1.399   .     A
C355   C358    1.483   .     S
C355   N337    1.438   1_556 S
C356   H341    1.110   1_554 S
C357   C361    1.405   .     A
C357   C365    1.485   .     S
C357   C359    1.406   1_554 A
C358   C360    1.405   1_556 A
C359   C357    1.406   1_556 A
C360   C361    1.396   .     A
C360   C358    1.405   1_554 A
