data_kag+N155+E229
_audit_creation_date              2025-01-21
_audit_creation_method            'Materials Studio'
_symmetry_space_group_name_H-M    'P1'
_symmetry_Int_Tables_number       1
_symmetry_cell_setting            triclinic
loop_
_symmetry_equiv_pos_as_xyz
  x,y,z
_cell_length_a                    46.2309
_cell_length_b                    47.8639
_cell_length_c                    22.0476
_cell_angle_alpha                 88.3776
_cell_angle_beta                  77.1360
_cell_angle_gamma                 122.5757
loop_
_atom_site_label
_atom_site_type_symbol
_atom_site_fract_x
_atom_site_fract_y
_atom_site_fract_z
_atom_site_U_iso_or_equiv
_atom_site_adp_type
_atom_site_occupancy
C0     C     0.44099   0.39784  -0.02861   0.00000  Uiso   1.00
Ho1    Ho    0.47657   0.46181  -0.02574   0.00000  Uiso   1.00
C2     C     0.55088   0.60251   0.98076   0.00000  Uiso   1.00
Ho3    Ho    0.51810   0.53863   0.97919   0.00000  Uiso   1.00
O4     O     0.42938   0.41095   0.01113   0.00000  Uiso   1.00
O5     O     0.47223   0.41903   0.93418   0.00000  Uiso   1.00
O6     O     0.47054   0.45782   0.07853   0.00000  Uiso   1.00
O7     O     0.46755   0.49407   0.03069   0.00000  Uiso   1.00
C8     C     0.46702   0.48073   0.08633   0.00000  Uiso   1.00
C9     C     0.52919   0.52022   0.86710   0.00000  Uiso   1.00
O10    O     0.51690   0.46697   0.02104   0.00000  Uiso   1.00
O11    O     0.54872   0.52451   1.02236   0.00000  Uiso   1.00
O12    O     0.56390   0.59022   0.94153   0.00000  Uiso   1.00
O13    O     0.52069   0.58043   0.01976   0.00000  Uiso   1.00
O14    O     0.52532   0.54290   0.87482   0.00000  Uiso   1.00
O15    O     0.52762   0.50634   0.92321   0.00000  Uiso   1.00
O16    O     0.47777   0.53339   0.93260   0.00000  Uiso   1.00
O17    O     0.44686   0.47620  -0.07074   0.00000  Uiso   1.00
C18    C     0.45205   0.50585   0.91954   0.00000  Uiso   1.00
C19    C     0.54322   0.49470   0.03273   0.00000  Uiso   1.00
C20    C     0.08176   0.49259   0.02655   0.00000  Uiso   1.00
Ho21   Ho    0.04035   0.50997   0.00445   0.00000  Uiso   1.00
C22    C     0.94380   0.53756   0.97140   0.00000  Uiso   1.00
Ho23   Ho    0.98985   0.52543   0.98861   0.00000  Uiso   1.00
O24    O     0.07220   0.50841   0.06272   0.00000  Uiso   1.00
O25    O     0.07000   0.48707   0.97791   0.00000  Uiso   1.00
O26    O     0.04348   0.51645   0.10158   0.00000  Uiso   1.00
O27    O     1.02149   0.53773   0.05393   0.00000  Uiso   1.00
C28    C     1.02517   0.52812   0.11021   0.00000  Uiso   1.00
C29    C    -0.01059   0.49040   0.90087   0.00000  Uiso   1.00
O30    O     0.07986   0.56270  -0.04584   0.00000  Uiso   1.00
O31    O     0.03883   0.57221   0.93140   0.00000  Uiso   1.00
O32    O     0.95399   0.52220   0.93503   0.00000  Uiso   1.00
O33    O     0.95767   0.54567   0.01732   0.00000  Uiso   1.00
O34    O     0.96862   0.49932   0.91312   0.00000  Uiso   1.00
O35    O     0.01725   0.50732   0.92831   0.00000  Uiso   1.00
O36    O     0.95103   0.47529   1.04774   0.00000  Uiso   1.00
O37    O     0.99053   0.46128   0.05233   0.00000  Uiso   1.00
C38    C     0.95839   0.45419   1.06419   0.00000  Uiso   1.00
C39    C     0.07150   0.58163  -0.07121   0.00000  Uiso   1.00
C40    C     0.52787   0.94720   1.07125   0.00000  Uiso   1.00
Ho41   Ho    0.54055   1.00171   1.01093   0.00000  Uiso   1.00
C42    C     0.46389   0.05803   0.02286   0.00000  Uiso   1.00
Ho43   Ho    0.49909   0.02982   0.01544   0.00000  Uiso   1.00
O44    O     0.55387   0.97663   1.07251   0.00000  Uiso   1.00
O45    O     0.50841   0.94692   0.03717   0.00000  Uiso   1.00
O46    O     0.56124   0.99802   0.91612   0.00000  Uiso   1.00
O47    O     0.52660   0.01777   0.93672   0.00000  Uiso   1.00
C48    C     0.54658   0.00900   0.89283   0.00000  Uiso   1.00
C49    C     0.49108   0.01736   0.13634   0.00000  Uiso   1.00
O50    O     0.48565   0.95519   1.02116   0.00000  Uiso   1.00
O51    O     0.45316   0.97842   0.02607   0.00000  Uiso   1.00
O52    O     0.46892   0.04765   0.07126   0.00000  Uiso   1.00
O53    O     0.47732   0.05275   0.97073   0.00000  Uiso   1.00
O54    O     0.47855   0.03099   0.11424   0.00000  Uiso   1.00
O55    O     0.51105   1.01018   0.09005   0.00000  Uiso   1.00
O56    O     0.55075   0.07757   0.00406   0.00000  Uiso   1.00
O57    O     0.58381   0.05527   0.99916   0.00000  Uiso   1.00
C58    C     0.58084   0.08062  -0.00216   0.00000  Uiso   1.00
C59    C     0.45563   0.95282   1.02676   0.00000  Uiso   1.00
C60    C     0.45945   0.48990   0.25854   0.00000  Uiso   1.00
C61    C     0.45449   0.51639   0.25961   0.00000  Uiso   1.00
C62    C     0.45422   0.53124   0.20452   0.00000  Uiso   1.00
C63    C     0.45835   0.51950   0.14813   0.00000  Uiso   1.00
C64    C     0.46313   0.49291   0.14621   0.00000  Uiso   1.00
C65    C     0.46397   0.47834   0.20147   0.00000  Uiso   1.00
C66    C     0.45814   0.47318   0.31878   0.00000  Uiso   1.00
H67    H     0.45066   0.52543   0.30326   0.00000  Uiso   1.00
H68    H     0.45049   0.55170   0.20562   0.00000  Uiso   1.00
H69    H     0.45756   0.53106   0.10609   0.00000  Uiso   1.00
H70    H     0.46766   0.45782   0.20026   0.00000  Uiso   1.00
H71    H     0.43059   0.46070   0.35107   0.00000  Uiso   1.00
H72    H     0.46375   0.45357   0.30957   0.00000  Uiso   1.00
C73    C     0.54474   0.51683   0.69225   0.00000  Uiso   1.00
C74    C     0.53680   0.52585   0.75070   0.00000  Uiso   1.00
C75    C     0.54624   0.53407   0.63254   0.00000  Uiso   1.00
C76    C     0.52505   0.52388   0.53996   0.00000  Uiso   1.00
C77    C     0.50020   0.49615   0.50871   0.00000  Uiso   1.00
C78    C     0.55181   0.49172   0.68973   0.00000  Uiso   1.00
C79    C     0.55075   0.47572   0.74490   0.00000  Uiso   1.00
C80    C     0.53602   0.50998   0.80615   0.00000  Uiso   1.00
H81    H     0.55811   0.48456   0.64498   0.00000  Uiso   1.00
H82    H     0.55624   0.45640   0.74259   0.00000  Uiso   1.00
H83    H     0.54257   0.47230   0.84516   0.00000  Uiso   1.00
H84    H     0.53155   0.54536   0.75294   0.00000  Uiso   1.00
H85    H     0.57400   0.54743   0.60071   0.00000  Uiso   1.00
C86    C     0.47960   0.48329   0.41071   0.00000  Uiso   1.00
C87    C     0.50468   0.51064   0.44221   0.00000  Uiso   1.00
H88    H     0.51814   0.54284   0.54441   0.00000  Uiso   1.00
H89    H     0.50667   0.47688   0.50587   0.00000  Uiso   1.00
H90    H     0.47203   0.48401   0.53785   0.00000  Uiso   1.00
H91    H     0.55314   0.53630   0.51005   0.00000  Uiso   1.00
H92    H     0.53957   0.55290   0.64275   0.00000  Uiso   1.00
H93    H     0.48589   0.46389   0.40681   0.00000  Uiso   1.00
H94    H     0.45158   0.47149   0.44039   0.00000  Uiso   1.00
N95    N     0.48437   0.49840   0.34772   0.00000  Uiso   1.00
N96    N     0.52079   0.50884   0.60266   0.00000  Uiso   1.00
C97    C     0.54290   0.48476   0.80293   0.00000  Uiso   1.00
C98    C     0.96563   0.44000   0.76976   0.00000  Uiso   1.00
C99    C    -0.01242   0.42785   0.76509   0.00000  Uiso   1.00
C100   C     0.00977   0.43604   0.80454   0.00000  Uiso   1.00
C101   C     0.01024   0.45634   0.84913   0.00000  Uiso   1.00
C102   C    -0.01214   0.46808   0.85530   0.00000  Uiso   1.00
C103   C     0.96525   0.45948   0.81604   0.00000  Uiso   1.00
C104   C     0.94599   0.43517   0.72104   0.00000  Uiso   1.00
H105   H    -0.01170   0.41295   0.72936   0.00000  Uiso   1.00
H106   H     0.02721   0.42720   0.79967   0.00000  Uiso   1.00
H107   H     0.02813   0.46294   0.87853   0.00000  Uiso   1.00
H108   H     0.94851   0.46910   0.81963   0.00000  Uiso   1.00
H109   H     0.92857   0.40782   0.71994   0.00000  Uiso   1.00
H110   H     0.92893   0.44517   0.73251   0.00000  Uiso   1.00
C111   C     0.01134   0.53764   0.28216   0.00000  Uiso   1.00
C112   C     0.02446   0.53217   0.22311   0.00000  Uiso   1.00
C113   C     0.02418   0.53483   0.33734   0.00000  Uiso   1.00
C114   C     0.00632   0.50309   0.44020   0.00000  Uiso   1.00
C115   C     0.97435   0.47541   0.49272   0.00000  Uiso   1.00
C116   C     0.98575   0.54556   0.28961   0.00000  Uiso   1.00
C117   C     0.97364   0.54823   0.23848   0.00000  Uiso   1.00
C118   C     0.01228   0.53479   0.17166   0.00000  Uiso   1.00
H119   H     0.97521   0.54961   0.33506   0.00000  Uiso   1.00
H120   H     0.95373   0.55410   0.24461   0.00000  Uiso   1.00
H121   H     0.97703   0.54493   0.14061   0.00000  Uiso   1.00
H122   H     0.04407   0.52583   0.21728   0.00000  Uiso   1.00
H123   H     0.03435   0.55863   0.35655   0.00000  Uiso   1.00
C124   C     0.95662   0.45180   0.60935   0.00000  Uiso   1.00
C125   C    -0.01296   0.47341   0.54973   0.00000  Uiso   1.00
H126   H     0.02646   0.49668   0.42617   0.00000  Uiso   1.00
H127   H     0.95401   0.48157   0.50564   0.00000  Uiso   1.00
H128   H     0.96235   0.45077   0.47638   0.00000  Uiso   1.00
H129   H     0.01857   0.52730   0.45828   0.00000  Uiso   1.00
H130   H     0.04652   0.53136   0.32216   0.00000  Uiso   1.00
H131   H     0.93996   0.46218   0.62083   0.00000  Uiso   1.00
H132   H     0.94005   0.42537   0.60209   0.00000  Uiso   1.00
N133   N    -0.02724   0.45328   0.65992   0.00000  Uiso   1.00
N134   N    -0.00553   0.50620   0.38571   0.00000  Uiso   1.00
C135   C     0.98696   0.54306   0.17961   0.00000  Uiso   1.00
C136   C     0.50015   0.99462   0.29469   0.00000  Uiso   1.00
C137   C     0.46791   0.98728   0.33533   0.00000  Uiso   1.00
C138   C     0.44439   0.99098   0.31156   0.00000  Uiso   1.00
C139   C     0.45245   1.00157   0.24689   0.00000  Uiso   1.00
C140   C     0.48396   1.00798   0.20498   0.00000  Uiso   1.00
C141   C     0.50770   1.00425   0.22906   0.00000  Uiso   1.00
C142   C     0.52601   0.99213   0.32202   0.00000  Uiso   1.00
H143   H     0.46115   0.97907   0.38566   0.00000  Uiso   1.00
H144   H     0.41977   0.98554   0.34340   0.00000  Uiso   1.00
H145   H     0.43368   1.00408   0.22946   0.00000  Uiso   1.00
H146   H     0.53209   1.00924   0.19696   0.00000  Uiso   1.00
H147   H     0.51360   0.96526   0.34218   0.00000  Uiso   1.00
H148   H     0.55071   1.00007   0.28419   0.00000  Uiso   1.00
C149   C     0.53125   0.02149   0.73441   0.00000  Uiso   1.00
C150   C     0.52686   0.01710   0.80015   0.00000  Uiso   1.00
C151   C     0.50584   0.02532   0.70805   0.00000  Uiso   1.00
C152   C     0.50855   0.02195   0.59655   0.00000  Uiso   1.00
C153   C     0.50884   0.99909   0.54962   0.00000  Uiso   1.00
C154   C     0.56019   0.02295   0.69313   0.00000  Uiso   1.00
C155   C     0.58337   0.01874   0.71696   0.00000  Uiso   1.00
C156   C     0.55053   0.01324   0.82419   0.00000  Uiso   1.00
H157   H     0.56454   0.02669   0.64243   0.00000  Uiso   1.00
H158   H     0.60532   0.01956   0.68481   0.00000  Uiso   1.00
H159   H     0.59700   0.01063   0.79928   0.00000  Uiso   1.00
H160   H     0.50506   0.01655   0.83244   0.00000  Uiso   1.00
H161   H     0.51889   0.05237   0.68796   0.00000  Uiso   1.00
C162   C     0.52365   0.99547   0.43329   0.00000  Uiso   1.00
C163   C     0.52394   0.01797   0.48133   0.00000  Uiso   1.00
H164   H     0.49129   0.03045   0.58882   0.00000  Uiso   1.00
H165   H     0.52563   0.99026   0.55852   0.00000  Uiso   1.00
H166   H     0.48105   0.97681   0.55692   0.00000  Uiso   1.00
H167   H     0.53640   0.04448   0.58802   0.00000  Uiso   1.00
H168   H     0.48172   0.01816   0.74675   0.00000  Uiso   1.00
H169   H     0.54185   0.98766   0.43820   0.00000  Uiso   1.00
H170   H     0.49591   0.97270   0.44309   0.00000  Uiso   1.00
N171   N     0.53598   1.01432   0.36916   0.00000  Uiso   1.00
N172   N     0.49427   0.00311   0.66144   0.00000  Uiso   1.00
C173   C     0.57847   0.01362   0.78201   0.00000  Uiso   1.00
C174   C     0.36820   0.48312   0.87503   0.00000  Uiso   1.00
C175   C     0.38044   0.51351   0.83705   0.00000  Uiso   1.00
C176   C     0.41511   0.54161   0.82887   0.00000  Uiso   1.00
C177   C     0.43832   0.53934   0.85655   0.00000  Uiso   1.00
C178   C     0.42729   0.50857   0.89156   0.00000  Uiso   1.00
C179   C     0.39197   0.48057   0.90105   0.00000  Uiso   1.00
C180   C     0.32955   0.45403   0.88989   0.00000  Uiso   1.00
H181   H     0.36298   0.51566   0.81460   0.00000  Uiso   1.00
H182   H     0.42390   0.56528   0.80139   0.00000  Uiso   1.00
H183   H     0.46506   0.56148   0.84976   0.00000  Uiso   1.00
H184   H     0.38272   0.45702   0.92989   0.00000  Uiso   1.00
H185   H     0.31926   0.45197   0.84804   0.00000  Uiso   1.00
H186   H     0.32724   0.43002   0.90123   0.00000  Uiso   1.00
C187   C     0.15656   0.49090   0.06570   0.00000  Uiso   1.00
C188   C     0.13567   0.50251   0.05437   0.00000  Uiso   1.00
C189   C     0.19300   0.51490   0.07441   0.00000  Uiso   1.00
C190   C     0.24058   0.50631   0.03278   0.00000  Uiso   1.00
C191   C     0.25917   0.50136   0.97172   0.00000  Uiso   1.00
C192   C     0.14370   0.45674   0.06643   0.00000  Uiso   1.00
C193   C     0.11104   0.43476   0.05399   0.00000  Uiso   1.00
C194   C     0.10318   0.48052   0.04064   0.00000  Uiso   1.00
H195   H     0.15905   0.44714   0.07611   0.00000  Uiso   1.00
H196   H     0.10133   0.40849   0.05445   0.00000  Uiso   1.00
H197   H     0.06595   0.42936   0.03005   0.00000  Uiso   1.00
H198   H     0.14523   0.52879   0.05385   0.00000  Uiso   1.00
H199   H     0.19470   0.50523   0.11911   0.00000  Uiso   1.00
C200   C     0.29552   0.47802   0.92776   0.00000  Uiso   1.00
C201   C     0.27434   0.48135  -0.01273   0.00000  Uiso   1.00
H202   H     0.26103   0.52431   0.05543   0.00000  Uiso   1.00
H203   H     0.23954   0.48720   0.94462   0.00000  Uiso   1.00
H204   H     0.28113   0.52644   0.94239   0.00000  Uiso   1.00
H205   H     0.22225   0.48147   0.06524   0.00000  Uiso   1.00
H206   H     0.19724   0.53973   0.07965   0.00000  Uiso   1.00
H207   H     0.27827   0.46618   0.89586   0.00000  Uiso   1.00
H208   H     0.31865   0.50373   0.90409   0.00000  Uiso   1.00
N209   N     0.30778   0.45720   0.94530   0.00000  Uiso   1.00
N210   N     0.22058   0.51996   0.01841   0.00000  Uiso   1.00
C211   C     0.09111   0.44667   0.04014   0.00000  Uiso   1.00
C212   C     0.86768   0.37114   0.11008   0.00000  Uiso   1.00
C213   C     0.87280   0.35299   0.15277   0.00000  Uiso   1.00
C214   C     0.90536   0.36801   0.16730   0.00000  Uiso   1.00
C215   C     0.93324   0.40113   0.13889   0.00000  Uiso   1.00
C216   C     0.92843   0.41982   0.09665   0.00000  Uiso   1.00
C217   C     0.89540   0.40477   0.08293   0.00000  Uiso   1.00
C218   C     0.83306   0.35417   0.09291   0.00000  Uiso   1.00
H219   H     0.85157   0.32712   0.17444   0.00000  Uiso   1.00
H220   H     0.90914   0.35382   0.20013   0.00000  Uiso   1.00
H221   H     0.95848   0.41220   0.15009   0.00000  Uiso   1.00
H222   H     0.89161   0.41879   0.04958   0.00000  Uiso   1.00
H223   H     0.81080   0.34414   0.13734   0.00000  Uiso   1.00
H224   H     0.83192   0.37246   0.06307   0.00000  Uiso   1.00
C225   C     0.67631   0.15216   0.98643   0.00000  Uiso   1.00
C226   C     0.64469   0.11969   0.99884   0.00000  Uiso   1.00
C227   C     0.70944   0.15737   0.99915   0.00000  Uiso   1.00
C228   C     0.75389   0.21162   1.02056   0.00000  Uiso   1.00
C229   C     0.75762   0.23597   0.06620   0.00000  Uiso   1.00
C230   C     0.67679   0.17980   0.96167   0.00000  Uiso   1.00
C231   C     0.64601   0.17522   0.95088   0.00000  Uiso   1.00
C232   C     0.61365   0.11488   0.98744   0.00000  Uiso   1.00
H233   H     0.70093   0.20495   0.95085   0.00000  Uiso   1.00
H234   H     0.64657   0.19669   0.93201   0.00000  Uiso   1.00
H235   H     0.59111   0.14006   0.95443   0.00000  Uiso   1.00
H236   H     0.64424   0.09822   1.01750   0.00000  Uiso   1.00
H237   H     0.73110   0.16761   0.95379   0.00000  Uiso   1.00
C238   C     0.79531   0.29596   0.08196   0.00000  Uiso   1.00
C239   C     0.79277   0.27038   0.04013   0.00000  Uiso   1.00
H240   H     0.77607   0.20789   1.01452   0.00000  Uiso   1.00
H241   H     0.73477   0.23877   0.07275   0.00000  Uiso   1.00
H242   H     0.75690   0.22562   0.11278   0.00000  Uiso   1.00
H243   H     0.75544   0.22266   0.97381   0.00000  Uiso   1.00
H244   H     0.70432   0.13289   1.01827   0.00000  Uiso   1.00
H245   H     0.77345   0.29962   0.08221   0.00000  Uiso   1.00
H246   H     0.79254   0.28633   0.13092   0.00000  Uiso   1.00
N247   N     0.83010   0.32786   0.05691   0.00000  Uiso   1.00
N248   N     0.71950   0.17922   1.04649   0.00000  Uiso   1.00
C249   C     0.61454   0.14303   0.96398   0.00000  Uiso   1.00
C250   C     0.86345   0.52969   0.93672   0.00000  Uiso   1.00
C251   C     0.87272   0.56288   0.93693   0.00000  Uiso   1.00
C252   C     0.90443   0.58715   0.94980   0.00000  Uiso   1.00
C253   C     0.92735   0.57867   0.96211   0.00000  Uiso   1.00
C254   C     0.91898   0.54592   0.96031   0.00000  Uiso   1.00
C255   C     0.88714   0.52151   0.94732   0.00000  Uiso   1.00
C256   C     0.82852   0.50337   0.92528   0.00000  Uiso   1.00
H257   H     0.85527   0.56997   0.92782   0.00000  Uiso   1.00
H258   H     0.91131   0.61263   0.95002   0.00000  Uiso   1.00
H259   H     0.95199   0.59782   0.97159   0.00000  Uiso   1.00
H260   H     0.88059   0.49612   0.94662   0.00000  Uiso   1.00
H261   H     0.82902   0.51012   0.87613   0.00000  Uiso   1.00
H262   H     0.82499   0.47845   0.92883   0.00000  Uiso   1.00
C263   C     0.62879   0.51624   0.06911   0.00000  Uiso   1.00
C264   C     0.60414   0.51953   0.04757   0.00000  Uiso   1.00
C265   C     0.66746   0.54531   0.05404   0.00000  Uiso   1.00
C266   C     0.71257   0.53250   0.02735   0.00000  Uiso   1.00
C267   C     0.73324   0.52502   0.97379   0.00000  Uiso   1.00
C268   C     0.61717   0.48534   0.10421   0.00000  Uiso   1.00
C269   C     0.58168   0.45798   0.11669   0.00000  Uiso   1.00
C270   C     0.56839   0.49189   0.05934   0.00000  Uiso   1.00
H271   H     0.63556   0.48237   0.12187   0.00000  Uiso   1.00
H272   H     0.57302   0.43421   0.14358   0.00000  Uiso   1.00
H273   H     0.53020   0.43942   0.10377   0.00000  Uiso   1.00
H274   H     0.61306   0.54327   0.02000   0.00000  Uiso   1.00
H275   H     0.67627   0.54899   0.09794   0.00000  Uiso   1.00
C276   C     0.77920   0.51054   0.94585   0.00000  Uiso   1.00
C277   C     0.75505   0.51468  -0.00120   0.00000  Uiso   1.00
H278   H     0.73192   0.55475   0.04503   0.00000  Uiso   1.00
H279   H     0.71413   0.50417   0.95324   0.00000  Uiso   1.00
H280   H     0.75139   0.54795   0.93642   0.00000  Uiso   1.00
H281   H     0.69615   0.51030   0.06645   0.00000  Uiso   1.00
H282   H     0.67062   0.56909   0.03672   0.00000  Uiso   1.00
H283   H     0.76278   0.49105   0.91991   0.00000  Uiso   1.00
H284   H     0.79801   0.53505   0.91273   0.00000  Uiso   1.00
N285   N     0.79875   0.50017   0.97339   0.00000  Uiso   1.00
N286   N     0.68955   0.53964   0.00378   0.00000  Uiso   1.00
C287   C     0.55748   0.46110   0.09404   0.00000  Uiso   1.00
C288   C     0.36131   0.88230   0.02977   0.00000  Uiso   1.00
C289   C     0.35828   0.85488   0.06271   0.00000  Uiso   1.00
C290   C     0.38714   0.85923   0.08150   0.00000  Uiso   1.00
C291   C     0.41911   0.89102   0.06848   0.00000  Uiso   1.00
C292   C     0.42249   0.91894   0.03672   0.00000  Uiso   1.00
C293   C     0.39337   0.91440   0.01756   0.00000  Uiso   1.00
C294   C     0.33033   0.87691   0.00799   0.00000  Uiso   1.00
H295   H     0.33364   0.83005   0.07328   0.00000  Uiso   1.00
H296   H     0.38461   0.83796   0.10684   0.00000  Uiso   1.00
H297   H     0.44082   0.89387   0.08477   0.00000  Uiso   1.00
H298   H     0.39576   0.93575   0.99284   0.00000  Uiso   1.00
H299   H     0.30778   0.86941   0.05062   0.00000  Uiso   1.00
H300   H     0.33734   0.90065  -0.01927   0.00000  Uiso   1.00
C301   C     0.15938   0.66777   0.88632   0.00000  Uiso   1.00
C302   C     0.13362   0.63332   0.91090   0.00000  Uiso   1.00
C303   C     0.19426   0.68632   0.90278   0.00000  Uiso   1.00
C304   C     0.23443   0.73851   0.93351   0.00000  Uiso   1.00
C305   C     0.23749   0.76828  -0.03748   0.00000  Uiso   1.00
C306   C     0.15235   0.68518   0.84593   0.00000  Uiso   1.00
C307   C     0.11992   0.66861   0.83089   0.00000  Uiso   1.00
C308   C     0.10054   0.61661   0.89690   0.00000  Uiso   1.00
H309   H     0.17188   0.71173   0.82671   0.00000  Uiso   1.00
H310   H     0.11450   0.68228   0.80030   0.00000  Uiso   1.00
H311   H     0.06893   0.62249   0.84462   0.00000  Uiso   1.00
H312   H     0.13887   0.61995  -0.05737   0.00000  Uiso   1.00
H313   H     0.21619   0.69612   0.85796   0.00000  Uiso   1.00
C314   C     0.28268   0.82595  -0.01711   0.00000  Uiso   1.00
C315   C     0.27696   0.79629  -0.04912   0.00000  Uiso   1.00
H316   H     0.24370   0.72655  -0.03901   0.00000  Uiso   1.00
H317   H     0.22461   0.77807   0.94019   0.00000  Uiso   1.00
H318   H     0.22388   0.75997   0.01416   0.00000  Uiso   1.00
H319   H     0.25178   0.74804   0.88377   0.00000  Uiso   1.00
H320   H     0.19617   0.66918   0.93431   0.00000  Uiso   1.00
H321   H     0.26938   0.83688  -0.03436   0.00000  Uiso   1.00
H322   H     0.27113   0.81671   0.03488   0.00000  Uiso   1.00
N323   N     0.32117   0.85153  -0.03311   0.00000  Uiso   1.00
N324   N     0.19726   0.71388   0.93461   0.00000  Uiso   1.00
C325   C     0.09412   0.63460   0.85623   0.00000  Uiso   1.00
C326   C     0.49665   0.85662   0.11530   0.00000  Uiso   1.00
C327   C     0.50753   0.85771   0.17039   0.00000  Uiso   1.00
C328   C     0.52496   0.88796   0.19274   0.00000  Uiso   1.00
C329   C     0.53182   0.91734   0.16027   0.00000  Uiso   1.00
C330   C     0.52021   0.91632   0.10610   0.00000  Uiso   1.00
C331   C     0.50210   0.88578   0.08442   0.00000  Uiso   1.00
C332   C     0.48308   0.82550   0.08636   0.00000  Uiso   1.00
H333   H     0.50352   0.83537   0.19479   0.00000  Uiso   1.00
H334   H     0.53382   0.88878   0.23458   0.00000  Uiso   1.00
H335   H     0.54593   0.94075   0.17756   0.00000  Uiso   1.00
H336   H     0.49385   0.88503   1.04172   0.00000  Uiso   1.00
H337   H     0.46066   0.80351   0.12300   0.00000  Uiso   1.00
H338   H     0.47312   0.82752   0.04600   0.00000  Uiso   1.00
C339   C     0.56988   0.68484   1.02794   0.00000  Uiso   1.00
C340   C     0.55491   0.65029   1.02977   0.00000  Uiso   1.00
C341   C     0.55469   0.69675   1.08009   0.00000  Uiso   1.00
C342   C     0.54457   0.74037   1.05962   0.00000  Uiso   1.00
C343   C     0.51870   0.74702   0.04096   0.00000  Uiso   1.00
C344   C     0.59851   0.70816   0.97607   0.00000  Uiso   1.00
C345   C     0.61234   0.69702   0.92706   0.00000  Uiso   1.00
C346   C     0.56841   0.63894   0.98026   0.00000  Uiso   1.00
H347   H     0.61005   0.73490   0.97369   0.00000  Uiso   1.00
H348   H     0.63432   0.71512   0.88702   0.00000  Uiso   1.00
H349   H     0.60822   0.65441   0.89016   0.00000  Uiso   1.00
H350   H     0.53237   0.63225   0.06934   0.00000  Uiso   1.00
H351   H     0.57700   0.71830   1.09435   0.00000  Uiso   1.00
C352   C     0.50160   0.78935   0.04488   0.00000  Uiso   1.00
C353   C     0.52982   0.78267   0.04875   0.00000  Uiso   1.00
H354   H     0.54598   0.74592   0.10802   0.00000  Uiso   1.00
H355   H     0.51907   0.74423   0.99095   0.00000  Uiso   1.00
H356   H     0.49122   0.72853   0.07222   0.00000  Uiso   1.00
H357   H     0.57162   0.75704   1.02549   0.00000  Uiso   1.00
H358   H     0.53800   0.67651   1.12266   0.00000  Uiso   1.00
H359   H     0.49984   0.79036  -0.00453   0.00000  Uiso   1.00
H360   H     0.47529   0.76879   0.07708   0.00000  Uiso   1.00
N361   N     0.51291   0.82188   0.06372   0.00000  Uiso   1.00
N362   N     0.53184   0.70505   1.05905   0.00000  Uiso   1.00
C363   C     0.59750   0.66258   0.92913   0.00000  Uiso   1.00
C364   C     0.41382   0.31311   0.92370   0.00000  Uiso   1.00
C365   C     0.37733   0.29349   0.95718   0.00000  Uiso   1.00
C366   C     0.36224   0.30748   0.99628   0.00000  Uiso   1.00
C367   C     0.38318   0.34132   1.00165   0.00000  Uiso   1.00
C368   C     0.41960   0.36164   0.96767   0.00000  Uiso   1.00
C369   C     0.43486   0.34731   0.92892   0.00000  Uiso   1.00
C370   C     0.42972   0.29746   0.88213   0.00000  Uiso   1.00
H371   H     0.36068   0.26712   0.95390   0.00000  Uiso   1.00
H372   H     0.33417   0.29203   1.02232   0.00000  Uiso   1.00
H373   H     0.37075   0.35168   1.03185   0.00000  Uiso   1.00
H374   H     0.46294   0.36277   0.90263   0.00000  Uiso   1.00
H375   H     0.41864   0.29212   0.84077   0.00000  Uiso   1.00
H376   H     0.45935   0.31512   0.86435   0.00000  Uiso   1.00
C377   C     0.41892   0.09935  -0.02173   0.00000  Uiso   1.00
C378   C     0.43685   0.08298  -0.02596   0.00000  Uiso   1.00
C379   C     0.41067   0.10824  -0.07878   0.00000  Uiso   1.00
C380   C     0.41251   0.15974  -0.09276   0.00000  Uiso   1.00
C381   C     0.43756   0.19815   0.89045   0.00000  Uiso   1.00
C382   C     0.40880   0.10748   0.03645   0.00000  Uiso   1.00
C383   C     0.41645   0.09935   0.08947   0.00000  Uiso   1.00
C384   C     0.44467   0.07482   0.02733   0.00000  Uiso   1.00
H385   H     0.39493   0.12006   0.04100   0.00000  Uiso   1.00
H386   H     0.40865   0.10576   0.13408   0.00000  Uiso   1.00
H387   H     0.43977   0.07701   0.12719   0.00000  Uiso   1.00
H388   H     0.44486   0.07680  -0.07079   0.00000  Uiso   1.00
H389   H     0.38146   0.09770  -0.06704   0.00000  Uiso   1.00
C390   C     0.43428   0.24950   0.87871   0.00000  Uiso   1.00
C391   C     0.41626   0.21358   0.91281   0.00000  Uiso   1.00
H392   H     0.39488   0.15060  -0.12471   0.00000  Uiso   1.00
H393   H     0.45891   0.20724   0.91485   0.00000  Uiso   1.00
H394   H     0.45032   0.20580   0.83832   0.00000  Uiso   1.00
H395   H     0.39566   0.15225  -0.04295   0.00000  Uiso   1.00
H396   H     0.41624   0.09625  -0.11808   0.00000  Uiso   1.00
H397   H     0.46376   0.26381   0.87046   0.00000  Uiso   1.00
H398   H     0.42778   0.24796   0.83274   0.00000  Uiso   1.00
N399   N     0.42030   0.26606   0.91805   0.00000  Uiso   1.00
N400   N     0.43348   0.14494  -0.10038   0.00000  Uiso   1.00
C401   C     0.43418   0.08304   0.08521   0.00000  Uiso   1.00
loop_
_geom_bond_atom_site_label_1
_geom_bond_atom_site_label_2
_geom_bond_distance
_geom_bond_site_symmetry_2
_ccdc_geom_bond_type
C0     O4      1.279   .     A
C0     O5      1.279   1_554 A
C0     C368    1.478   1_554 S
Ho1    O4      2.174   .     S
Ho1    O6      2.243   .     S
Ho1    O7      2.163   .     S
Ho1    O10     2.231   .     S
Ho1    O17     2.221   .     S
Ho1    O5      2.180   1_554 S
Ho1    O15     2.155   1_554 S
C2     O12     1.279   .     A
C2     C346    1.473   .     S
C2     O13     1.277   1_556 A
Ho3    O11     2.227   .     S
Ho3    O12     2.177   .     S
Ho3    O14     2.238   .     S
Ho3    O15     2.169   .     S
Ho3    O16     2.227   .     S
Ho3    O7      2.148   1_556 S
Ho3    O13     2.170   1_556 S
O5     C0      1.279   1_556 A
O5     Ho1     2.180   1_556 S
O6     C8      1.204   .     D
O7     C8      1.356   .     S
O7     Ho3     2.148   1_554 S
C8     C64     1.472   .     S
C9     O14     1.202   .     D
C9     O15     1.356   .     S
C9     C80     1.470   .     S
O10    C19     1.315   .     A
O11    C19     1.311   1_556 A
O13    C2      1.277   1_554 A
O13    Ho3     2.170   1_554 S
O15    Ho1     2.155   1_556 S
O16    C18     1.312   .     A
O17    C18     1.308   1_554 A
C18    C178    1.476   .     S
C18    O17     1.308   1_556 A
C19    C270    1.478   .     S
C19    O11     1.311   1_554 A
C20    O24     1.282   .     A
C20    C194    1.467   .     S
C20    O25     1.279   1_554 A
Ho21   O24     2.186   .     S
Ho21   O26     2.198   .     S
Ho21   O30     2.216   .     S
Ho21   O25     2.172   1_554 S
Ho21   O27     2.150   1_455 S
Ho21   O35     2.154   1_554 S
Ho21   O37     2.202   1_455 S
C22    O32     1.282   .     A
C22    C254    1.466   .     S
C22    O33     1.277   1_556 A
Ho23   O32     2.185   .     S
Ho23   O34     2.195   .     S
Ho23   O36     2.196   .     S
Ho23   O27     2.149   1_556 S
Ho23   O31     2.200   1_655 S
Ho23   O33     2.172   1_556 S
Ho23   O35     2.150   1_655 S
O25    C20     1.279   1_556 A
O25    Ho21    2.172   1_556 S
O26    C28     1.228   1_455 D
O27    C28     1.388   .     S
O27    Ho21    2.150   1_655 S
O27    Ho23    2.149   1_554 S
C28    O26     1.228   1_655 D
C28    C118    1.470   1_655 S
C29    O35     1.390   .     S
C29    C102    1.472   .     S
C29    O34     1.230   1_455 D
O30    C39     1.314   .     A
O31    Ho23    2.200   1_455 S
O31    C39     1.309   1_556 A
O33    C22     1.277   1_554 A
O33    Ho23    2.172   1_554 S
O34    C29     1.230   1_655 D
O35    Ho21    2.154   1_556 S
O35    Ho23    2.150   1_455 S
O36    C38     1.293   .     A
O37    Ho21    2.202   1_655 S
O37    C38     1.293   1_554 A
C38    O37     1.293   1_556 A
C38    C216    1.475   1_556 S
C39    O31     1.309   1_554 A
C39    C308    1.481   1_554 S
C40    O44     1.274   .     A
C40    O45     1.289   1_556 A
C40    C330    1.467   1_556 S
Ho41   O44     2.177   .     S
Ho41   O46     2.151   .     S
Ho41   O50     2.254   .     S
Ho41   O45     2.181   1_556 S
Ho41   O47     2.148   1_565 S
Ho41   O55     2.155   1_556 S
Ho41   O57     2.202   1_565 S
C42    O52     1.282   .     A
C42    C384    1.476   .     S
C42    O53     1.280   1_554 A
Ho43   O52     2.183   .     S
Ho43   O54     2.189   .     S
Ho43   O56     2.194   .     S
Ho43   O47     2.197   1_554 S
Ho43   O51     2.177   1_545 S
Ho43   O53     2.182   1_554 S
Ho43   O55     2.184   1_545 S
O45    C40     1.289   1_554 A
O45    Ho41    2.181   1_554 S
O46    C48     1.234   1_565 D
O47    C48     1.417   .     S
O47    Ho41    2.148   1_545 S
O47    Ho43    2.197   1_556 S
C48    C156    1.478   .     S
C48    O46     1.234   1_545 D
C49    O54     1.230   .     D
C49    O55     1.398   1_545 S
C49    C140    1.477   1_545 S
O50    C59     1.307   .     A
O51    Ho43    2.177   1_565 S
O51    C59     1.290   1_554 A
O53    C42     1.280   1_556 A
O53    Ho43    2.182   1_556 S
O55    Ho41    2.155   1_554 S
O55    Ho43    2.184   1_565 S
O55    C49     1.398   1_565 S
O56    C58     1.292   .     A
O57    Ho41    2.202   1_545 S
O57    C58     1.293   1_556 A
C58    O57     1.293   1_554 A
C58    C232    1.479   1_554 S
C59    O51     1.290   1_556 A
C59    C292    1.476   1_556 S
C60    C61     1.405   .     A
C60    C65     1.407   .     A
C60    C66     1.503   .     S
C61    C62     1.396   .     A
C61    H67     1.084   .     S
C62    C63     1.395   .     A
C62    H68     1.082   .     S
C63    C64     1.404   .     A
C63    H69     1.084   .     S
C64    C65     1.405   .     A
C65    H70     1.084   .     S
C66    H71     1.113   .     S
C66    H72     1.113   .     S
C66    N95     1.465   .     S
C73    C74     1.405   .     A
C73    C75     1.502   .     S
C73    C78     1.405   .     A
C74    C80     1.404   .     A
C74    H84     1.084   .     S
C75    H85     1.113   .     S
C75    H92     1.113   .     S
C75    N96     1.462   .     S
C76    C77     1.522   .     S
C76    H88     1.113   .     S
C76    H91     1.114   .     S
C76    N96     1.462   .     S
C77    C87     1.525   .     S
C77    H89     1.112   .     S
C77    H90     1.112   .     S
C78    C79     1.396   .     A
C78    H81     1.084   .     S
C79    H82     1.082   .     S
C79    C97     1.396   .     A
C80    C97     1.404   .     A
H83    C97     1.084   .     S
C86    C87     1.522   .     S
C86    H93     1.112   .     S
C86    H94     1.113   .     S
C86    N95     1.461   .     S
C98    C103    1.405   .     A
C98    C104    1.501   .     S
C98    C99     1.404   1_655 A
C99    C100    1.395   .     A
C99    H105    1.084   .     S
C99    C98     1.404   1_455 A
C100   C101    1.397   .     A
C100   H106    1.082   .     S
C101   C102    1.404   .     A
C101   H107    1.083   .     S
C102   C103    1.404   1_455 A
C103   H108    1.084   .     S
C103   C102    1.404   1_655 A
C104   H109    1.112   .     S
C104   H110    1.114   .     S
C104   N133    1.461   1_655 S
C111   C112    1.404   .     A
C111   C113    1.500   .     S
C111   C116    1.403   1_455 A
C112   C118    1.404   .     A
C112   H122    1.085   .     S
C113   H123    1.113   .     S
C113   H130    1.113   .     S
C113   N134    1.463   .     S
C114   H126    1.114   .     S
C114   H129    1.115   .     S
C114   N134    1.461   .     S
C114   C115    1.524   1_455 S
C115   H127    1.112   .     S
C115   H128    1.112   .     S
C115   C114    1.524   1_655 S
C115   C125    1.522   1_655 S
C116   C117    1.396   .     A
C116   H119    1.084   .     S
C116   C111    1.403   1_655 A
C117   H120    1.082   .     S
C117   C135    1.397   .     A
C118   C135    1.404   1_455 A
C118   C28     1.470   1_455 S
H121   C135    1.083   .     S
C124   H131    1.112   .     S
C124   H132    1.112   .     S
C124   C125    1.519   1_655 S
C124   N133    1.457   1_655 S
C125   C115    1.522   1_455 S
C125   C124    1.519   1_455 S
N133   C104    1.461   1_455 S
N133   C124    1.457   1_455 S
C135   C118    1.404   1_655 A
C136   C137    1.404   .     A
C136   C141    1.411   .     A
C136   C142    1.509   .     S
C137   C138    1.395   .     A
C137   H143    1.083   .     S
C138   C139    1.396   .     A
C138   H144    1.082   .     S
C139   C140    1.405   .     A
C139   H145    1.083   .     S
C140   C141    1.408   .     A
C140   C49     1.477   1_565 S
C141   H146    1.084   .     S
C142   H147    1.114   .     S
C142   H148    1.111   .     S
C142   N171    1.473   .     S
C149   C150    1.411   .     A
C149   C151    1.510   .     S
C149   C154    1.406   .     A
C150   C156    1.408   .     A
C150   H160    1.084   .     S
C151   H161    1.115   .     S
C151   H168    1.112   .     S
C151   N172    1.472   .     S
C152   H164    1.113   .     S
C152   H167    1.114   .     S
C152   N172    1.470   .     S
C152   C153    1.530   1_545 S
C153   H165    1.112   .     S
C153   H166    1.112   .     S
C153   C152    1.530   1_565 S
C153   C163    1.532   1_565 S
C154   C155    1.394   .     A
C154   H157    1.082   .     S
C155   H158    1.081   .     S
C155   C173    1.394   .     A
C156   C173    1.404   .     A
H159   C173    1.083   .     S
C162   H169    1.112   .     S
C162   H170    1.112   .     S
C162   N171    1.467   .     S
C162   C163    1.529   1_565 S
C163   C153    1.532   1_545 S
C163   C162    1.529   1_545 S
C174   C175    1.404   .     A
C174   C179    1.405   .     A
C174   C180    1.508   .     S
C175   C176    1.395   .     A
C175   H181    1.083   .     S
C176   C177    1.396   .     A
C176   H182    1.082   .     S
C177   C178    1.405   .     A
C177   H183    1.083   .     S
C178   C179    1.408   .     A
C179   H184    1.085   .     S
C180   H185    1.113   .     S
C180   H186    1.111   .     S
C180   N209    1.468   .     S
C187   C188    1.408   .     A
C187   C189    1.506   .     S
C187   C192    1.405   .     A
C188   C194    1.405   .     A
C188   H198    1.084   .     S
C189   H199    1.113   .     S
C189   H206    1.110   .     S
C189   N210    1.469   .     S
C190   H202    1.115   .     S
C190   H205    1.114   .     S
C190   N210    1.466   .     S
C190   C191    1.526   1_554 S
C191   H203    1.114   .     S
C191   H204    1.114   .     S
C191   C190    1.526   1_556 S
C191   C201    1.529   1_556 S
C192   C193    1.397   .     A
C192   H195    1.083   .     S
C193   H196    1.082   .     S
C193   C211    1.396   .     A
C194   C211    1.402   .     A
H197   C211    1.085   .     S
C200   H207    1.112   .     S
C200   H208    1.108   .     S
C200   N209    1.465   .     S
C200   C201    1.521   1_556 S
C201   C191    1.529   1_554 S
C201   C200    1.521   1_554 S
C212   C213    1.404   .     A
C212   C217    1.405   .     A
C212   C218    1.501   .     S
C213   C214    1.395   .     A
C213   H219    1.083   .     S
C214   C215    1.397   .     A
C214   H220    1.083   .     S
C215   C216    1.406   .     A
C215   H221    1.083   .     S
C216   C217    1.406   .     A
C216   C38     1.475   1_554 S
C217   H222    1.085   .     S
C218   H223    1.114   .     S
C218   H224    1.111   .     S
C218   N247    1.468   .     S
C225   C226    1.406   .     A
C225   C227    1.507   .     S
C225   C230    1.404   .     A
C226   C232    1.408   .     A
C226   H236    1.084   .     S
C227   H237    1.114   .     S
C227   H244    1.111   .     S
C227   N248    1.467   .     S
C228   H240    1.113   .     S
C228   H243    1.114   .     S
C228   N248    1.466   .     S
C228   C229    1.525   1_556 S
C229   C239    1.527   .     S
C229   H241    1.113   .     S
C229   H242    1.114   .     S
C229   C228    1.525   1_554 S
C230   C231    1.396   .     A
C230   H233    1.082   .     S
C231   H234    1.082   .     S
C231   C249    1.396   .     A
C232   C249    1.406   .     A
C232   C58     1.479   1_556 S
H235   C249    1.084   .     S
C238   C239    1.523   .     S
C238   H245    1.114   .     S
C238   H246    1.114   .     S
C238   N247    1.461   .     S
C250   C251    1.406   .     A
C250   C255    1.406   .     A
C250   C256    1.506   .     S
C251   C252    1.396   .     A
C251   H257    1.081   .     S
C252   C253    1.395   .     A
C252   H258    1.082   .     S
C253   C254    1.402   .     A
C253   H259    1.084   .     S
C254   C255    1.403   .     A
C255   H260    1.084   .     S
C256   H261    1.114   .     S
C256   H262    1.111   .     S
C256   N285    1.469   .     S
C263   C264    1.407   .     A
C263   C265    1.508   .     S
C263   C268    1.403   .     A
C264   C270    1.408   .     A
C264   H274    1.084   .     S
C265   H275    1.114   .     S
C265   H282    1.111   .     S
C265   N286    1.468   .     S
C266   H278    1.113   .     S
C266   H281    1.112   .     S
C266   N286    1.466   .     S
C266   C267    1.525   1_554 S
C267   H279    1.112   .     S
C267   H280    1.112   .     S
C267   C266    1.525   1_556 S
C267   C277    1.528   1_556 S
C268   C269    1.395   .     A
C268   H271    1.081   .     S
C269   H272    1.082   .     S
C269   C287    1.396   .     A
C270   C287    1.406   .     A
H273   C287    1.082   .     S
C276   H283    1.111   .     S
C276   H284    1.112   .     S
C276   N285    1.464   .     S
C276   C277    1.523   1_556 S
C277   C267    1.528   1_554 S
C277   C276    1.523   1_554 S
C288   C289    1.404   .     A
C288   C293    1.406   .     A
C288   C294    1.505   .     S
C289   C290    1.395   .     A
C289   H295    1.083   .     S
C290   C291    1.395   .     A
C290   H296    1.083   .     S
C291   C292    1.405   .     A
C291   H297    1.082   .     S
C292   C293    1.408   .     A
C292   C59     1.476   1_554 S
C293   H298    1.083   1_554 S
C294   H299    1.114   .     S
C294   H300    1.112   .     S
C294   N323    1.468   .     S
H298   C293    1.083   1_556 S
C301   C302    1.407   .     A
C301   C303    1.503   .     S
C301   C306    1.404   .     A
C302   C308    1.407   .     A
C302   H312    1.084   1_556 S
C303   H313    1.113   .     S
C303   H320    1.112   .     S
C303   N324    1.467   .     S
C304   H319    1.114   .     S
C304   N324    1.464   .     S
C304   C305    1.527   1_556 S
C304   H316    1.113   1_556 S
C305   C315    1.526   .     S
C305   H318    1.112   .     S
C305   C304    1.527   1_554 S
C305   H317    1.111   1_554 S
C306   C307    1.394   .     A
C306   H309    1.083   .     S
C307   H310    1.083   .     S
C307   C325    1.395   .     A
C308   C325    1.408   .     A
C308   C39     1.481   1_556 S
H311   C325    1.083   .     S
H312   C302    1.084   1_554 S
C314   C315    1.523   .     S
C314   H321    1.112   .     S
C314   H322    1.113   .     S
C314   N323    1.463   .     S
H316   C304    1.113   1_554 S
H317   C305    1.111   1_556 S
C326   C327    1.406   .     A
C326   C331    1.402   .     A
C326   C332    1.498   .     S
C327   C328    1.396   .     A
C327   H333    1.085   .     S
C328   C329    1.397   .     A
C328   H334    1.083   .     S
C329   C330    1.406   .     A
C329   H335    1.084   .     S
C330   C331    1.402   .     A
C330   C40     1.467   1_554 S
C331   H336    1.087   1_554 S
C332   H337    1.113   .     S
C332   H338    1.113   .     S
C332   N361    1.462   .     S
H336   C331    1.087   1_556 S
C339   C340    1.402   .     A
C339   C341    1.500   .     S
C339   C344    1.403   .     A
C340   C346    1.404   .     A
C340   H350    1.084   1_556 S
C341   H351    1.115   .     S
C341   H358    1.112   .     S
C341   N362    1.466   .     S
C342   H357    1.113   .     S
C342   N362    1.462   .     S
C342   C343    1.524   1_556 S
C342   H354    1.114   1_556 S
C343   C353    1.522   .     S
C343   H356    1.112   .     S
C343   C342    1.524   1_554 S
C343   H355    1.112   1_554 S
C344   C345    1.397   .     A
C344   H347    1.084   .     S
C345   H348    1.082   .     S
C345   C363    1.398   .     A
C346   C363    1.405   .     A
H349   C363    1.084   .     S
H350   C340    1.084   1_554 S
C352   C353    1.520   .     S
C352   H359    1.112   .     S
C352   H360    1.113   .     S
C352   N361    1.458   .     S
H354   C342    1.114   1_554 S
H355   C343    1.112   1_556 S
C364   C365    1.405   .     A
C364   C369    1.409   .     A
C364   C370    1.508   .     S
C365   C366    1.395   .     A
C365   H371    1.084   .     S
C366   C367    1.396   .     A
C366   H372    1.082   .     S
C367   C368    1.406   .     A
C367   H373    1.084   .     S
C368   C369    1.409   .     A
C368   C0      1.478   1_556 S
C369   H374    1.084   .     S
C370   H375    1.113   .     S
C370   H376    1.114   .     S
C370   N399    1.466   .     S
C377   C378    1.407   .     A
C377   C379    1.506   .     S
C377   C382    1.404   .     A
C378   C384    1.407   .     A
C378   H388    1.083   .     S
C379   H389    1.117   .     S
C379   H396    1.111   .     S
C379   N400    1.469   .     S
C380   H392    1.114   .     S
C380   H395    1.113   .     S
C380   N400    1.464   .     S
C380   C381    1.528   1_554 S
C381   C391    1.531   .     S
C381   H393    1.114   .     S
C381   H394    1.116   .     S
C381   C380    1.528   1_556 S
C382   C383    1.396   .     A
C382   H385    1.083   .     S
C383   H386    1.082   .     S
C383   C401    1.396   .     A
C384   C401    1.406   .     A
H387   C401    1.086   .     S
C390   C391    1.524   .     S
C390   H397    1.112   .     S
C390   H398    1.113   .     S
C390   N399    1.462   .     S
