data_kag+N173+E161
_audit_creation_date              2025-01-21
_audit_creation_method            'Materials Studio'
_symmetry_space_group_name_H-M    'P1'
_symmetry_Int_Tables_number       1
_symmetry_cell_setting            triclinic
loop_
_symmetry_equiv_pos_as_xyz
  x,y,z
_cell_length_a                    51.2321
_cell_length_b                    49.4933
_cell_length_c                    23.2186
_cell_angle_alpha                 94.3012
_cell_angle_beta                  96.1097
_cell_angle_gamma                 119.7822
loop_
_atom_site_label
_atom_site_type_symbol
_atom_site_fract_x
_atom_site_fract_y
_atom_site_fract_z
_atom_site_U_iso_or_equiv
_atom_site_adp_type
_atom_site_occupancy
Gd0    Gd    0.50755   0.49546   1.00446   0.00000  Uiso   1.00
Gd1    Gd    0.53796   0.56544   0.01995   0.00000  Uiso   1.00
O2     O     0.54326   0.57816   0.11483   0.00000  Uiso   1.00
O3     O     0.52174   0.52932   0.08245   0.00000  Uiso   1.00
O4     O     0.46403   0.49480   0.00937   0.00000  Uiso   1.00
O5     O     0.48728   0.54827   1.00858   0.00000  Uiso   1.00
O6     O     0.49072   0.44563   0.96588   0.00000  Uiso   1.00
O7     O     0.50342   0.45807   0.05865   0.00000  Uiso   1.00
O8     O     0.50227   0.50899   0.91661   0.00000  Uiso   1.00
C9     C     0.49600   0.43724   1.01436   0.00000  Uiso   1.00
O10    O     0.53706   0.55922   0.92721   0.00000  Uiso   1.00
O11    O     0.55549   0.50831   1.00223   0.00000  Uiso   1.00
C12    C     0.46341   0.52067   0.00792   0.00000  Uiso   1.00
O13    O     0.57913   0.56093   0.03012   0.00000  Uiso   1.00
O14    O     0.50939   0.58810   0.00421   0.00000  Uiso   1.00
O15    O     0.55731   0.61673   1.01572   0.00000  Uiso   1.00
C16    C     0.53075   0.55029   0.12527   0.00000  Uiso   1.00
C17    C     0.53210   0.61568   0.00640   0.00000  Uiso   1.00
C18    C     0.57960   0.53555   0.01663   0.00000  Uiso   1.00
C19    C     0.51829   0.53378   0.89541   0.00000  Uiso   1.00
Gd20   Gd    0.99579   0.55501   1.00659   0.00000  Uiso   1.00
Gd21   Gd    0.05145   0.51009   0.01628   0.00000  Uiso   1.00
O22    O     0.04650   0.52146   0.10701   0.00000  Uiso   1.00
O23    O     0.02034   0.53933   0.06651   0.00000  Uiso   1.00
O24    O     0.04616   0.58000   0.04879   0.00000  Uiso   1.00
O25    O     0.06619   0.55843  -0.00617   0.00000  Uiso   1.00
O26    O     0.94785   0.54111   0.97983   0.00000  Uiso   1.00
O27    O     0.96787   0.55703   0.07171   0.00000  Uiso   1.00
O28    O     0.01002   0.55063   0.92071   0.00000  Uiso   1.00
C29    C     0.94439   0.54751   0.03184   0.00000  Uiso   1.00
O30    O     0.03819   0.52698   0.93633   0.00000  Uiso   1.00
O31    O     0.97418   0.50213   1.00146   0.00000  Uiso   1.00
C32    C     0.06812   0.58211   0.02366   0.00000  Uiso   1.00
O33    O     1.00093   0.47674   0.99342   0.00000  Uiso   1.00
O34    O     0.10136   0.53467   0.02998   0.00000  Uiso   1.00
O35    O     0.07780   0.50100   0.95277   0.00000  Uiso   1.00
C36    C     0.02897   0.53197   0.11305   0.00000  Uiso   1.00
C37    C     0.10342   0.51986  -0.01456   0.00000  Uiso   1.00
C38    C     0.97638   0.47744   0.99555   0.00000  Uiso   1.00
C39    C     0.02531   0.53835   0.90360   0.00000  Uiso   1.00
Gd40   Gd    0.47075   0.00400   0.99253   0.00000  Uiso   1.00
Gd41   Gd    0.57264   0.05987   0.03339   0.00000  Uiso   1.00
O42    O     0.55434   0.05125   0.11792   0.00000  Uiso   1.00
O43    O     0.51196   0.02614   0.06136   0.00000  Uiso   1.00
O44    O     0.49915   0.05375   0.04061   0.00000  Uiso   1.00
O45    O     0.54048   0.07594  -0.00257   0.00000  Uiso   1.00
O46    O     0.43508   0.95579   0.95800   0.00000  Uiso   1.00
O47    O     0.44211   0.97234   0.05096   0.00000  Uiso   1.00
O48    O     0.48927   0.02077   0.91032   0.00000  Uiso   1.00
C49    C     0.42674   0.94971   1.00780   0.00000  Uiso   1.00
O50    O     0.53775   0.04363   0.95030   0.00000  Uiso   1.00
O51    O     0.50027   0.98225   0.99935   0.00000  Uiso   1.00
C52    C     0.51898   0.07682   0.01910   0.00000  Uiso   1.00
O53    O     0.55221   0.00817   0.01044   0.00000  Uiso   1.00
O54    O     0.60044   0.11114   0.04609   0.00000  Uiso   1.00
O55    O     0.60544   0.08505   0.97335   0.00000  Uiso   1.00
C56    C     0.52604   0.03396   0.11370   0.00000  Uiso   1.00
C57    C     0.61489   0.11181   0.00424   0.00000  Uiso   1.00
C58    C     0.52592   0.98329   1.00388   0.00000  Uiso   1.00
C59    C     0.51697   0.03385   0.90530   0.00000  Uiso   1.00
H60    H     0.55520   0.57910   0.83838   0.00000  Uiso   1.00
C61    C     0.52653   0.54212   0.18263   0.00000  Uiso   1.00
C62    C     0.49903   0.51611   0.19099   0.00000  Uiso   1.00
C63    C     0.49410   0.50986   0.24776   0.00000  Uiso   1.00
C64    C     0.51734   0.52945   0.29504   0.00000  Uiso   1.00
C65    C     0.54546   0.55457   0.28599   0.00000  Uiso   1.00
C66    C     0.54976   0.56059   0.22933   0.00000  Uiso   1.00
C67    C     0.46387   0.48354   0.25803   0.00000  Uiso   1.00
C68    C     0.57022   0.57597   0.33630   0.00000  Uiso   1.00
C69    C     0.52085   0.50751   0.38204   0.00000  Uiso   1.00
C70    C     0.52080   0.50767   0.44208   0.00000  Uiso   1.00
C71    C     0.51084   0.52601   0.47140   0.00000  Uiso   1.00
C72    C     0.50089   0.54353   0.44043   0.00000  Uiso   1.00
C73    C     0.50157   0.54276   0.38058   0.00000  Uiso   1.00
C74    C     0.53123   0.49081   0.47354   0.00000  Uiso   1.00
C75    C     0.53207   0.49235   0.53384   0.00000  Uiso   1.00
C76    C     0.52212   0.51046   0.56334   0.00000  Uiso   1.00
C77    C     0.51124   0.52715   0.53200   0.00000  Uiso   1.00
C78    C     0.50093   0.54518   0.56118   0.00000  Uiso   1.00
C79    C     0.49119   0.56265   0.53001   0.00000  Uiso   1.00
C80    C     0.49137   0.56200   0.47007   0.00000  Uiso   1.00
C81    C     0.52282   0.51247   0.62368   0.00000  Uiso   1.00
C82    C     0.50085   0.54532   0.62114   0.00000  Uiso   1.00
C83    C     0.51250   0.53074   0.71220   0.00000  Uiso   1.00
C84    C     0.46480   0.47573   0.69700   0.00000  Uiso   1.00
C85    C     0.49192   0.50640   0.79551   0.00000  Uiso   1.00
C86    C     0.56066   0.58470   0.72563   0.00000  Uiso   1.00
C87    C     0.53701   0.55859   0.80948   0.00000  Uiso   1.00
C88    C     0.53605   0.55760   0.74943   0.00000  Uiso   1.00
C89    C     0.49022   0.50503   0.73514   0.00000  Uiso   1.00
C90    C     0.51527   0.53301   0.83255   0.00000  Uiso   1.00
H91    H     0.55060   0.59573   0.69823   0.00000  Uiso   1.00
N92    N     0.51202   0.52547   0.35334   0.00000  Uiso   1.00
N93    N     0.51192   0.52935   0.65076   0.00000  Uiso   1.00
H94    H     0.57250   0.57615   0.69873   0.00000  Uiso   1.00
H95    H     0.48112   0.50177   0.15392   0.00000  Uiso   1.00
H96    H     0.57102   0.57996   0.22135   0.00000  Uiso   1.00
H97    H     0.44846   0.46972   0.21622   0.00000  Uiso   1.00
H98    H     0.46748   0.46725   0.28366   0.00000  Uiso   1.00
H99    H     0.45237   0.49340   0.28293   0.00000  Uiso   1.00
H100   H     0.57619   0.56198   0.36426   0.00000  Uiso   1.00
H101   H     0.59123   0.59326   0.32075   0.00000  Uiso   1.00
H102   H     0.56229   0.58927   0.36272   0.00000  Uiso   1.00
O103   O     0.49302   0.56045   0.34951   0.00000  Uiso   1.00
O104   O     0.53111   0.49054   0.35236   0.00000  Uiso   1.00
H105   H     0.53909   0.47670   0.45185   0.00000  Uiso   1.00
H106   H     0.48416   0.57608   0.44716   0.00000  Uiso   1.00
H107   H     0.54045   0.47931   0.55719   0.00000  Uiso   1.00
H108   H     0.44250   0.47206   0.70605   0.00000  Uiso   1.00
H109   H     0.46513   0.47684   0.64956   0.00000  Uiso   1.00
H110   H     0.47507   0.48657   0.81346   0.00000  Uiso   1.00
H111   H     0.48373   0.57711   0.55187   0.00000  Uiso   1.00
H112   H     0.57800   0.60320   0.76133   0.00000  Uiso   1.00
O113   O     0.48981   0.56163   0.65048   0.00000  Uiso   1.00
O114   O     0.53423   0.49731   0.65579   0.00000  Uiso   1.00
H115   H     0.46666   0.45512   0.70725   0.00000  Uiso   1.00
H116   H     0.03250   0.58146   0.18493   0.00000  Uiso   1.00
C117   C     0.03077   0.53824   0.84293   0.00000  Uiso   1.00
C118   C     0.03347   0.51371   0.81510   0.00000  Uiso   1.00
C119   C     0.03550   0.51137   0.75500   0.00000  Uiso   1.00
C120   C     0.03530   0.53437   0.72247   0.00000  Uiso   1.00
C121   C     0.03387   0.55968   0.75141   0.00000  Uiso   1.00
C122   C     0.03177   0.56142   0.81121   0.00000  Uiso   1.00
C123   C     0.03669   0.48388   0.72580   0.00000  Uiso   1.00
C124   C     0.03291   0.58417   0.71809   0.00000  Uiso   1.00
C125   C     0.00616   0.51428   0.62403   0.00000  Uiso   1.00
C126   C     0.00370   0.51482   0.56318   0.00000  Uiso   1.00
C127   C     0.03030   0.53240   0.53908   0.00000  Uiso   1.00
C128   C     0.05893   0.54854   0.57586   0.00000  Uiso   1.00
C129   C     0.06029   0.54746   0.63662   0.00000  Uiso   1.00
C130   C     0.97528   0.49882   0.52605   0.00000  Uiso   1.00
C131   C     0.97321   0.50075   0.46606   0.00000  Uiso   1.00
C132   C     0.99955   0.51853   0.44152   0.00000  Uiso   1.00
C133   C     0.02822   0.53405   0.47806   0.00000  Uiso   1.00
C134   C     0.05479   0.55116   0.45361   0.00000  Uiso   1.00
C135   C     0.08328   0.56693   0.49070   0.00000  Uiso   1.00
C136   C     0.08530   0.56583   0.55108   0.00000  Uiso   1.00
C137   C     0.99795   0.52084   0.38115   0.00000  Uiso   1.00
C138   C     0.05219   0.55172   0.39254   0.00000  Uiso   1.00
C139   C     0.02192   0.53552   0.29435   0.00000  Uiso   1.00
C140   C     0.01193   0.47906   0.28450   0.00000  Uiso   1.00
C141   C     0.01311   0.50617   0.19857   0.00000  Uiso   1.00
C142   C     0.03431   0.59223   0.30273   0.00000  Uiso   1.00
C143   C     0.02608   0.56049   0.20527   0.00000  Uiso   1.00
C144   C     0.02688   0.56199   0.26672   0.00000  Uiso   1.00
C145   C     0.01504   0.50745   0.25924   0.00000  Uiso   1.00
C146   C     0.01988   0.53264   0.17113   0.00000  Uiso   1.00
H147   H     0.05651   0.60233   0.33223   0.00000  Uiso   1.00
N148   N     0.03407   0.53109   0.65959   0.00000  Uiso   1.00
N149   N     0.02407   0.53687   0.35753   0.00000  Uiso   1.00
H150   H     0.01624   0.58769   0.32948   0.00000  Uiso   1.00
H151   H     0.03308   0.49587   0.84016   0.00000  Uiso   1.00
H152   H     0.03083   0.58096   0.83304   0.00000  Uiso   1.00
H153   H     0.03742   0.46843   0.75762   0.00000  Uiso   1.00
H154   H     0.01608   0.46958   0.69210   0.00000  Uiso   1.00
H155   H     0.05730   0.49251   0.70477   0.00000  Uiso   1.00
H156   H     0.01209   0.57260   0.68423   0.00000  Uiso   1.00
H157   H     0.03214   0.60246   0.74751   0.00000  Uiso   1.00
H158   H     0.05350   0.59586   0.69703   0.00000  Uiso   1.00
O159   O     0.08791   0.56386   0.67333   0.00000  Uiso   1.00
O160   O     0.98029   0.49796   0.64822   0.00000  Uiso   1.00
H161   H     0.95447   0.48492   0.54325   0.00000  Uiso   1.00
H162   H     0.10761   0.57866   0.57825   0.00000  Uiso   1.00
H163   H     0.95088   0.48816   0.43897   0.00000  Uiso   1.00
H164   H     0.02953   0.47410   0.27133   0.00000  Uiso   1.00
H165   H     0.01492   0.48203   0.33286   0.00000  Uiso   1.00
H166   H     0.00922   0.48491   0.17259   0.00000  Uiso   1.00
H167   H     0.10412   0.58044   0.47326   0.00000  Uiso   1.00
H168   H     0.03589   0.60995   0.27455   0.00000  Uiso   1.00
O169   O     0.07808   0.56643   0.36785   0.00000  Uiso   1.00
O170   O     0.97004   0.50597   0.34546   0.00000  Uiso   1.00
H171   H     0.98909   0.45841   0.26672   0.00000  Uiso   1.00
H172   H     0.51315   0.07271   0.83430   0.00000  Uiso   1.00
C173   C     0.51243   0.02672   0.16780   0.00000  Uiso   1.00
C174   C     0.51047   0.00114   0.19336   0.00000  Uiso   1.00
C175   C     0.50928  -0.00004   0.25366   0.00000  Uiso   1.00
C176   C     0.50987   0.02478   0.28953   0.00000  Uiso   1.00
C177   C     0.51030   0.04987   0.26322   0.00000  Uiso   1.00
C178   C     0.51162   0.05060   0.20285   0.00000  Uiso   1.00
C179   C     0.50930   0.97316   0.28012   0.00000  Uiso   1.00
C180   C     0.51137   0.07687   0.30002   0.00000  Uiso   1.00
C181   C     0.54030   0.03815   0.38709   0.00000  Uiso   1.00
C182   C     0.54316   0.03903   0.44863   0.00000  Uiso   1.00
C183   C     0.51675   0.02680   0.47479   0.00000  Uiso   1.00
C184   C     0.48800   0.01393   0.43925   0.00000  Uiso   1.00
C185   C     0.48622   0.01362   0.37790   0.00000  Uiso   1.00
C186   C     0.57174   0.05180   0.48462   0.00000  Uiso   1.00
C187   C     0.57406   0.05287   0.54561   0.00000  Uiso   1.00
C188   C     0.54786   0.04102   0.57233   0.00000  Uiso   1.00
C189   C     0.51909   0.02755   0.53664   0.00000  Uiso   1.00
C190   C     0.49263   0.01488   0.56264   0.00000  Uiso   1.00
C191   C     0.46404   0.00191   0.52669   0.00000  Uiso   1.00
C192   C     0.46178   0.00165   0.46592   0.00000  Uiso   1.00
C193   C     0.54967   0.04258   0.63391   0.00000  Uiso   1.00
C194   C     0.49544   0.01582   0.62411   0.00000  Uiso   1.00
C195   C     0.52584   0.03360   0.72235   0.00000  Uiso   1.00
C196   C     0.53799   0.98940   0.72773   0.00000  Uiso   1.00
C197   C     0.53214   0.01639   0.81666   0.00000  Uiso   1.00
C198   C     0.51314   0.07706   0.71896   0.00000  Uiso   1.00
C199   C     0.51924   0.05698   0.81257   0.00000  Uiso   1.00
C200   C     0.51991   0.05564   0.75194   0.00000  Uiso   1.00
C201   C     0.53239   0.01411   0.75568   0.00000  Uiso   1.00
C202   C     0.52500   0.03733   0.84503   0.00000  Uiso   1.00
H203   H     0.49098   0.06307   0.68905   0.00000  Uiso   1.00
N204   N     0.51213   0.02554   0.35283   0.00000  Uiso   1.00
N205   N     0.52367   0.03028   0.65883   0.00000  Uiso   1.00
H206   H     0.53147   0.09002   0.69315   0.00000  Uiso   1.00
H207   H     0.51229   0.98328   0.16710   0.00000  Uiso   1.00
H208   H     0.51423   0.07099   0.18384   0.00000  Uiso   1.00
H209   H     0.50847   0.95551   0.24634   0.00000  Uiso   1.00
H210   H     0.53041   0.98226   0.31260   0.00000  Uiso   1.00
H211   H     0.48915   0.96120   0.30224   0.00000  Uiso   1.00
H212   H     0.53214   0.08852   0.33408   0.00000  Uiso   1.00
H213   H     0.51192   0.09478   0.27327   0.00000  Uiso   1.00
H214   H     0.49092   0.06809   0.32166   0.00000  Uiso   1.00
O215   O     0.45831   0.00123   0.34306   0.00000  Uiso   1.00
O216   O     0.56597   0.05011   0.36133   0.00000  Uiso   1.00
H217   H     0.59247   0.06112   0.46581   0.00000  Uiso   1.00
H218   H     0.43936   0.99176   0.43990   0.00000  Uiso   1.00
H219   H     0.59649   0.06300   0.57171   0.00000  Uiso   1.00
H220   H     0.52044   0.96583   0.73591   0.00000  Uiso   1.00
H221   H     0.53701   0.98874   0.67973   0.00000  Uiso   1.00
H222   H     0.53584   0.00051   0.84140   0.00000  Uiso   1.00
H223   H     0.44330   0.99219   0.54545   0.00000  Uiso   1.00
H224   H     0.51164   0.09459   0.74908   0.00000  Uiso   1.00
O225   O     0.46966   0.00244   0.64947   0.00000  Uiso   1.00
O226   O     0.57767   0.05671   0.66912   0.00000  Uiso   1.00
H227   H     0.56083   0.99400   0.74723   0.00000  Uiso   1.00
H228   H     0.14370   0.52567   0.07250   0.00000  Uiso   1.00
C229   C     0.43429   0.51994   0.00402   0.00000  Uiso   1.00
C230   C     0.42450   0.52910   0.95456   0.00000  Uiso   1.00
C231   C     0.39962   0.53376   0.95249   0.00000  Uiso   1.00
C232   C     0.38428   0.52929   1.00106   0.00000  Uiso   1.00
C233   C     0.39474   0.52115   0.05198   0.00000  Uiso   1.00
C234   C     0.41956   0.51621   0.05282   0.00000  Uiso   1.00
C235   C     0.38992   0.54406   0.89898   0.00000  Uiso   1.00
C236   C     0.37997   0.51858   0.10563   0.00000  Uiso   1.00
C237   C     0.32961   0.50252   0.97384   0.00000  Uiso   1.00
C238   C     0.30166   0.50160   0.96895   0.00000  Uiso   1.00
C239   C     0.30135   0.52921   0.98707   0.00000  Uiso   1.00
C240   C     0.32895   0.55728   0.00976   0.00000  Uiso   1.00
C241   C     0.35649   0.55702   0.01416   0.00000  Uiso   1.00
C242   C     0.27408   0.47369   0.94660   0.00000  Uiso   1.00
C243   C     0.24641   0.47302   0.94313   0.00000  Uiso   1.00
C244   C     0.24575   0.50036   0.96120   0.00000  Uiso   1.00
C245   C     0.27334   0.52866   0.98258   0.00000  Uiso   1.00
C246   C     0.27292   0.55631  -0.00026   0.00000  Uiso   1.00
C247   C     0.30055   0.58424   0.02228   0.00000  Uiso   1.00
C248   C     0.32825   0.58469   0.02752   0.00000  Uiso   1.00
C249   C     0.21810   0.50004   0.95900   0.00000  Uiso   1.00
C250   C     0.24474   0.55514  -0.00557   0.00000  Uiso   1.00
C251   C     0.18925   0.52581   0.97592   0.00000  Uiso   1.00
C252   C     0.18044   0.52247   0.86433   0.00000  Uiso   1.00
C253   C     0.14215   0.52048   0.92521   0.00000  Uiso   1.00
C254   C     0.19713   0.52737   0.08658   0.00000  Uiso   1.00
C255   C     0.15135   0.52509   0.03091   0.00000  Uiso   1.00
C256   C     0.17908   0.52636   0.02990   0.00000  Uiso   1.00
C257   C     0.17063   0.52288   0.92313   0.00000  Uiso   1.00
C258   C     0.13271   0.52200   0.97922   0.00000  Uiso   1.00
H259   H     0.21933   0.54975   0.09660   0.00000  Uiso   1.00
N260   N     0.35626   0.52983   0.99641   0.00000  Uiso   1.00
N261   N     0.21802   0.52718   0.97530   0.00000  Uiso   1.00
H262   H     0.20116   0.50730   0.08336   0.00000  Uiso   1.00
H263   H     0.43662   0.53289   0.91769   0.00000  Uiso   1.00
H264   H     0.42802   0.51045   0.09198   0.00000  Uiso   1.00
H265   H     0.40527   0.54804   0.86613   0.00000  Uiso   1.00
H266   H     0.36640   0.52583   0.87813   0.00000  Uiso   1.00
H267   H     0.39060   0.56650   0.91167   0.00000  Uiso   1.00
H268   H     0.35569   0.49950   0.09583   0.00000  Uiso   1.00
H269   H     0.39162   0.51357   0.14285   0.00000  Uiso   1.00
H270   H     0.38112   0.54115   0.11968   0.00000  Uiso   1.00
O271   O     0.38362   0.58405   0.03629   0.00000  Uiso   1.00
O272   O     0.33021   0.47576   0.95608   0.00000  Uiso   1.00
H273   H     0.27375   0.45221   0.93202   0.00000  Uiso   1.00
H274   H     0.34905   0.60658   0.04550   0.00000  Uiso   1.00
H275   H     0.22557   0.45102   0.92611   0.00000  Uiso   1.00
H276   H     0.18212   0.54275   0.84400   0.00000  Uiso   1.00
H277   H     0.20294   0.52409   0.86705   0.00000  Uiso   1.00
H278   H     0.12781   0.51808   0.88498   0.00000  Uiso   1.00
H279   H     0.30083   0.60575   0.03646   0.00000  Uiso   1.00
H280   H     0.18488   0.52574   0.12410   0.00000  Uiso   1.00
O281   O     0.24397   0.58207   0.00951   0.00000  Uiso   1.00
O282   O     0.19100   0.47229   0.94104   0.00000  Uiso   1.00
H283   H     0.16334   0.50032   0.83532   0.00000  Uiso   1.00
H284   H     0.63706   0.13440   0.90468   0.00000  Uiso   1.00
C285   C     0.94844   0.44712   0.99425   0.00000  Uiso   1.00
C286   C     0.94338   0.43312   0.04523   0.00000  Uiso   1.00
C287   C     0.91631   0.40480   0.04632   0.00000  Uiso   1.00
C288   C     0.89402   0.39023   0.99527   0.00000  Uiso   1.00
C289   C     0.89946   0.40395   0.94330   0.00000  Uiso   1.00
C290   C     0.92655   0.43258   0.94346   0.00000  Uiso   1.00
C291   C     0.91131   0.39016   0.10172   0.00000  Uiso   1.00
C292   C     0.87656   0.38798   0.88777   0.00000  Uiso   1.00
C293   C     0.84170   0.36395   0.01301   0.00000  Uiso   1.00
C294   C     0.81362   0.33659   0.01386   0.00000  Uiso   1.00
C295   C     0.81047   0.30699   0.99772   0.00000  Uiso   1.00
C296   C     0.83538   0.30515   0.98180   0.00000  Uiso   1.00
C297   C     0.86298   0.33315   0.98136   0.00000  Uiso   1.00
C298   C     0.78868   0.33812   0.03023   0.00000  Uiso   1.00
C299   C     0.76075   0.31062   0.02910   0.00000  Uiso   1.00
C300   C     0.75721   0.28100   0.01203   0.00000  Uiso   1.00
C301   C     0.78231   0.27915  -0.00266   0.00000  Uiso   1.00
C302   C     0.77932   0.24952   0.98231   0.00000  Uiso   1.00
C303   C     0.80444   0.24795   0.96731   0.00000  Uiso   1.00
C304   C     0.83210   0.27546   0.96664   0.00000  Uiso   1.00
C305   C     0.72919   0.25307   0.00945   0.00000  Uiso   1.00
C306   C     0.75120   0.22220   0.98282   0.00000  Uiso   1.00
C307   C     0.69821   0.19612   0.99630   0.00000  Uiso   1.00
C308   C     0.70832   0.20526   0.10890   0.00000  Uiso   1.00
C309   C     0.66124   0.16011   0.05083   0.00000  Uiso   1.00
C310   C     0.68741   0.18723   0.88496   0.00000  Uiso   1.00
C311   C     0.65161   0.14926   0.94496   0.00000  Uiso   1.00
C312   C     0.67904   0.17726   0.94320   0.00000  Uiso   1.00
C313   C     0.68909   0.18716   0.05044   0.00000  Uiso   1.00
C314   C     0.64266   0.14091   0.99882   0.00000  Uiso   1.00
H315   H     0.70879   0.18772   0.87861   0.00000  Uiso   1.00
N316   N     0.86559   0.36178   0.99651   0.00000  Uiso   1.00
N317   N     0.72673   0.22442  -0.00466   0.00000  Uiso   1.00
H318   H     0.69070   0.21108   0.88330   0.00000  Uiso   1.00
H319   H     0.96051   0.44451   0.08434   0.00000  Uiso   1.00
H320   H     0.93074   0.44339   0.90396   0.00000  Uiso   1.00
H321   H     0.93076   0.40460   0.13793   0.00000  Uiso   1.00
H322   H     0.89038   0.38782   0.11607   0.00000  Uiso   1.00
H323   H     0.90865   0.36645   0.09375   0.00000  Uiso   1.00
H324   H     0.85422   0.38493   0.89488   0.00000  Uiso   1.00
H325   H     0.88398   0.40185   0.85119   0.00000  Uiso   1.00
H326   H     0.87368   0.36449   0.87456   0.00000  Uiso   1.00
O327   O     0.88741   0.33179   0.96551   0.00000  Uiso   1.00
O328   O     0.84513   0.39300   0.02844   0.00000  Uiso   1.00
H329   H     0.79058   0.36054   0.04369   0.00000  Uiso   1.00
H330   H     0.85088   0.27337   0.95423   0.00000  Uiso   1.00
H331   H     0.74198   0.31265   0.04183   0.00000  Uiso   1.00
H332   H     0.71320   0.18959   0.13406   0.00000  Uiso   1.00
H333   H     0.73042   0.22603   0.10519   0.00000  Uiso   1.00
H334   H     0.65448   0.15335   0.09258   0.00000  Uiso   1.00
H335   H     0.80275   0.22547   0.95556   0.00000  Uiso   1.00
H336   H     0.66929   0.17086   0.84799   0.00000  Uiso   1.00
O337   O     0.74834   0.19315   0.97126   0.00000  Uiso   1.00
O338   O     0.70429   0.25449   0.02217   0.00000  Uiso   1.00
H339   H     0.69554   0.21329   0.13410   0.00000  Uiso   1.00
H340   H     0.59179   0.48884   0.02517   0.00000  Uiso   1.00
C341   C     0.91603   0.54629   0.04250   0.00000  Uiso   1.00
C342   C     0.91614   0.57456   0.05275   0.00000  Uiso   1.00
C343   C     0.88874   0.57462   0.05149   0.00000  Uiso   1.00
C344   C     0.86077   0.54578   0.04131   0.00000  Uiso   1.00
C345   C     0.86056   0.51711   0.03285   0.00000  Uiso   1.00
C346   C     0.88824   0.51762   0.03241   0.00000  Uiso   1.00
C347   C     0.88937   0.60541   0.05873   0.00000  Uiso   1.00
C348   C     0.83090   0.48619   0.02277   0.00000  Uiso   1.00
C349   C     0.81894   0.54740   0.98506   0.00000  Uiso   1.00
C350   C     0.79138   0.54744   0.98064   0.00000  Uiso   1.00
C351   C     0.77799   0.54572   0.03120   0.00000  Uiso   1.00
C352   C     0.79228   0.54410   0.08509   0.00000  Uiso   1.00
C353   C     0.81975   0.54405   0.08730   0.00000  Uiso   1.00
C354   C     0.77693   0.54912   0.92716   0.00000  Uiso   1.00
C355   C     0.74919   0.54843   0.92369   0.00000  Uiso   1.00
C356   C     0.73550   0.54637   0.97376   0.00000  Uiso   1.00
C357   C     0.75021   0.54553   0.02788   0.00000  Uiso   1.00
C358   C     0.73716   0.54441   0.07870   0.00000  Uiso   1.00
C359   C     0.75165   0.54296   0.13224   0.00000  Uiso   1.00
C360   C     0.77881   0.54259   0.13533   0.00000  Uiso   1.00
C361   C     0.70731   0.54492   0.97128   0.00000  Uiso   1.00
C362   C     0.70972   0.54449   0.07453   0.00000  Uiso   1.00
C363   C     0.66593   0.54183   0.01800   0.00000  Uiso   1.00
C364   C     0.69013   0.60041   0.00826   0.00000  Uiso   1.00
C365   C     0.63504   0.56641   0.01285   0.00000  Uiso   1.00
C366   C     0.64166   0.48350   0.02642   0.00000  Uiso   1.00
C367   C     0.61172   0.51101   0.02135   0.00000  Uiso   1.00
C368   C     0.63981   0.51274   0.02180   0.00000  Uiso   1.00
C369   C     0.66338   0.56878   0.01305   0.00000  Uiso   1.00
C370   C     0.60923   0.53773   0.01719   0.00000  Uiso   1.00
H371   H     0.65579   0.48628   0.06856   0.00000  Uiso   1.00
N372   N     0.83246   0.54568   0.03778   0.00000  Uiso   1.00
N373   N     0.69508   0.54400   0.02126   0.00000  Uiso   1.00
H374   H     0.65190   0.47914   0.98963   0.00000  Uiso   1.00
H375   H     0.93760   0.59663   0.05846   0.00000  Uiso   1.00
H376   H     0.88815   0.49576   0.02318   0.00000  Uiso   1.00
H377   H     0.91304   0.62582   0.06571   0.00000  Uiso   1.00
H378   H     0.87663   0.60713   0.01874   0.00000  Uiso   1.00
H379   H     0.87866   0.60693   0.09700   0.00000  Uiso   1.00
H380   H     0.81594   0.48501   0.98319   0.00000  Uiso   1.00
H381   H     0.83450   0.46588   0.01637   0.00000  Uiso   1.00
H382   H     0.81918   0.48398   0.06122   0.00000  Uiso   1.00
O383   O     0.83396   0.54242   0.13938   0.00000  Uiso   1.00
O384   O     0.83234   0.54905   0.93627   0.00000  Uiso   1.00
H385   H     0.78690   0.55085   0.88776   0.00000  Uiso   1.00
H386   H     0.78920   0.54115   0.17721   0.00000  Uiso   1.00
H387   H     0.73857   0.54959   0.88175   0.00000  Uiso   1.00
H388   H     0.69301   0.61817   0.04441   0.00000  Uiso   1.00
H389   H     0.71185   0.60045   1.01069   0.00000  Uiso   1.00
H390   H     0.63311   0.58705   1.00890   0.00000  Uiso   1.00
H391   H     0.74186   0.54178   0.17177   0.00000  Uiso   1.00
H392   H     0.61875   0.46241   0.02470   0.00000  Uiso   1.00
O393   O     0.69729   0.54469   0.12404   0.00000  Uiso   1.00
O394   O     0.69196   0.54442   0.91862   0.00000  Uiso   1.00
H395   H     0.68574   0.60762   0.96580   0.00000  Uiso   1.00
H396   H     0.09286   0.60925   0.93263   0.00000  Uiso   1.00
C397   C     0.40060   0.91897   0.01313   0.00000  Uiso   1.00
C398   C     0.39754   0.90707   0.06637   0.00000  Uiso   1.00
C399   C     0.37208   0.87788   0.07057   0.00000  Uiso   1.00
C400   C     0.34902   0.86096   0.02111   0.00000  Uiso   1.00
C401   C     0.35243   0.87266   0.96717   0.00000  Uiso   1.00
C402   C     0.37835   0.90136   0.96358   0.00000  Uiso   1.00
C403   C     0.36970   0.86474   0.12739   0.00000  Uiso   1.00
C404   C     0.32833   0.85493   0.91370   0.00000  Uiso   1.00
C405   C     0.29784   0.83497   0.04393   0.00000  Uiso   1.00
C406   C     0.26986   0.80775   0.04563   0.00000  Uiso   1.00
C407   C     0.26643   0.77804   0.02910   0.00000  Uiso   1.00
C408   C     0.29095   0.77603   0.01138   0.00000  Uiso   1.00
C409   C     0.31852   0.80394   0.01021   0.00000  Uiso   1.00
C410   C     0.24520   0.80952   0.06279   0.00000  Uiso   1.00
C411   C     0.21737   0.78215   0.06292   0.00000  Uiso   1.00
C412   C     0.21362   0.75237   0.04634   0.00000  Uiso   1.00
C413   C     0.23834   0.75031   0.02995   0.00000  Uiso   1.00
C414   C     0.23499   0.72058   0.01423   0.00000  Uiso   1.00
C415   C     0.25962   0.71885   0.99654   0.00000  Uiso   1.00
C416   C     0.28721   0.74627   0.99476   0.00000  Uiso   1.00
C417   C     0.18567   0.72454   0.04543   0.00000  Uiso   1.00
C418   C     0.20695   0.69333   0.01632   0.00000  Uiso   1.00
C419   C     0.15365   0.66749   0.02968   0.00000  Uiso   1.00
C420   C     0.16221   0.67351   0.14177   0.00000  Uiso   1.00
C421   C     0.11447   0.62989   0.08014   0.00000  Uiso   1.00
C422   C     0.14454   0.66188   0.91852   0.00000  Uiso   1.00
C423   C     0.10682   0.62285   0.97427   0.00000  Uiso   1.00
C424   C     0.13493   0.65045   0.97533   0.00000  Uiso   1.00
C425   C     0.14320   0.65698   0.08244   0.00000  Uiso   1.00
C426   C     0.09635   0.61264   0.02638   0.00000  Uiso   1.00
H427   H     0.16575   0.66193   0.91241   0.00000  Uiso   1.00
N428   N     0.32137   0.83262   0.02606   0.00000  Uiso   1.00
N429   N     0.18281   0.69571   0.03089   0.00000  Uiso   1.00
H430   H     0.14873   0.68617   0.91901   0.00000  Uiso   1.00
H431   H     0.41512   0.92036   0.10428   0.00000  Uiso   1.00
H432   H     0.38082   0.91043   0.92220   0.00000  Uiso   1.00
H433   H     0.38994   0.88043   0.16134   0.00000  Uiso   1.00
H434   H     0.34907   0.86181   0.14408   0.00000  Uiso   1.00
H435   H     0.36812   0.84150   0.12019   0.00000  Uiso   1.00
H436   H     0.30623   0.85193   0.92244   0.00000  Uiso   1.00
H437   H     0.33433   0.86751   0.87517   0.00000  Uiso   1.00
H438   H     0.32566   0.83141   0.90227   0.00000  Uiso   1.00
O439   O     0.34255   0.80247   0.99241   0.00000  Uiso   1.00
O440   O     0.30144   0.86412   0.05924   0.00000  Uiso   1.00
H441   H     0.24726   0.83206   0.07585   0.00000  Uiso   1.00
H442   H     0.30558   0.74408   0.98026   0.00000  Uiso   1.00
H443   H     0.19882   0.78441   0.07615   0.00000  Uiso   1.00
H444   H     0.16713   0.65716   0.16441   0.00000  Uiso   1.00
H445   H     0.18432   0.69469   0.13944   0.00000  Uiso   1.00
H446   H     0.10671   0.62159   0.12044   0.00000  Uiso   1.00
H447   H     0.25759   0.69634   0.98346   0.00000  Uiso   1.00
H448   H     0.12679   0.64670   0.88014   0.00000  Uiso   1.00
O449   O     0.20375   0.66421   0.00342   0.00000  Uiso   1.00
O450   O     0.16111   0.72627   0.05934   0.00000  Uiso   1.00
H451   H     0.14942   0.68086   0.16842   0.00000  Uiso   1.00
H452   H     0.57107   0.67403   0.06196   0.00000  Uiso   1.00
C453   C     0.52504   0.95323   0.00309   0.00000  Uiso   1.00
C454   C     0.49866   0.92521   0.97666   0.00000  Uiso   1.00
C455   C     0.49745   0.89640   0.97668   0.00000  Uiso   1.00
C456   C     0.52299   0.89571   0.00415   0.00000  Uiso   1.00
C457   C     0.54925   0.92374   0.03249   0.00000  Uiso   1.00
C458   C     0.55012   0.95234   0.03133   0.00000  Uiso   1.00
C459   C     0.46906   0.86660   0.94727   0.00000  Uiso   1.00
C460   C     0.57620   0.92322   0.06403   0.00000  Uiso   1.00
C461   C     0.53287   0.85786   0.95506   0.00000  Uiso   1.00
C462   C     0.53332   0.82971   0.95124   0.00000  Uiso   1.00
C463   C     0.52302   0.81060   0.99530   0.00000  Uiso   1.00
C464   C     0.51254   0.81992   0.04231   0.00000  Uiso   1.00
C465   C     0.51271   0.84839   0.04443   0.00000  Uiso   1.00
C466   C     0.54387   0.82031   0.90474   0.00000  Uiso   1.00
C467   C     0.54456   0.79240   0.90240   0.00000  Uiso   1.00
C468   C     0.53445   0.77318   0.94625   0.00000  Uiso   1.00
C469   C     0.52332   0.78218   0.99249   0.00000  Uiso   1.00
C470   C     0.51263   0.76290   0.03614   0.00000  Uiso   1.00
C471   C     0.50213   0.77236   0.08270   0.00000  Uiso   1.00
C472   C     0.50225   0.80068   0.08593   0.00000  Uiso   1.00
C473   C     0.53543   0.74527   0.94558   0.00000  Uiso   1.00
C474   C     0.51306   0.73472   0.03246   0.00000  Uiso   1.00
C475   C     0.52743   0.69906   0.98931   0.00000  Uiso   1.00
C476   C     0.48017   0.66770   0.91021   0.00000  Uiso   1.00
C477   C     0.50652   0.64279   0.96081   0.00000  Uiso   1.00
C478   C     0.57534   0.73092   0.06528   0.00000  Uiso   1.00
C479   C     0.55273   0.67301   0.03213   0.00000  Uiso   1.00
C480   C     0.55141   0.70041   0.02791   0.00000  Uiso   1.00
C481   C     0.50527   0.67018   0.95444   0.00000  Uiso   1.00
C482   C     0.53002   0.64406   0.99990   0.00000  Uiso   1.00
H483   H     0.56477   0.73856   0.09719   0.00000  Uiso   1.00
N484   N     0.52276   0.86658   0.00117   0.00000  Uiso   1.00
N485   N     0.52489   0.72676   0.98841   0.00000  Uiso   1.00
H486   H     0.58604   0.74948   0.03725   0.00000  Uiso   1.00
H487   H     0.47913   0.92588   0.95544   0.00000  Uiso   1.00
H488   H     0.57022   0.97391   0.05329   0.00000  Uiso   1.00
H489   H     0.45114   0.87132   0.92819   0.00000  Uiso   1.00
H490   H     0.47451   0.85512   0.91138   0.00000  Uiso   1.00
H491   H     0.45967   0.85027   0.97967   0.00000  Uiso   1.00
H492   H     0.58548   0.91349   0.03280   0.00000  Uiso   1.00
H493   H     0.59476   0.94718   0.08446   0.00000  Uiso   1.00
H494   H     0.56910   0.90836   0.09935   0.00000  Uiso   1.00
O495   O     0.50282   0.85807   0.09002   0.00000  Uiso   1.00
O496   O     0.54275   0.87684   0.91254   0.00000  Uiso   1.00
H497   H     0.55177   0.83458   0.87023   0.00000  Uiso   1.00
H498   H     0.49426   0.80744   0.12266   0.00000  Uiso   1.00
H499   H     0.55302   0.78597   0.86612   0.00000  Uiso   1.00
H500   H     0.45769   0.64977   0.91973   0.00000  Uiso   1.00
H501   H     0.48039   0.69020   0.91013   0.00000  Uiso   1.00
H502   H     0.48939   0.62062   0.93445   0.00000  Uiso   1.00
H503   H     0.49405   0.75808   0.11709   0.00000  Uiso   1.00
H504   H     0.59362   0.72857   0.09041   0.00000  Uiso   1.00
O505   O     0.50214   0.71533   0.07401   0.00000  Uiso   1.00
O506   O     0.54719   0.73665   0.90212   0.00000  Uiso   1.00
H507   H     0.48274   0.66045   0.86570   0.00000  Uiso   1.00
H508   H     0.53036   0.11951   0.10988   0.00000  Uiso   1.00
C509   C     0.49660   0.40748   0.01746   0.00000  Uiso   1.00
C510   C     0.48432   0.38406   0.96811   0.00000  Uiso   1.00
C511   C     0.48717   0.35718   0.96792   0.00000  Uiso   1.00
C512   C     0.50315   0.35373   0.01753   0.00000  Uiso   1.00
C513   C     0.51590   0.37726   0.06724   0.00000  Uiso   1.00
C514   C     0.51241   0.40382   0.06689   0.00000  Uiso   1.00
C515   C     0.47295   0.33208   0.91491   0.00000  Uiso   1.00
C516   C     0.53342   0.37413   0.12024   0.00000  Uiso   1.00
C517   C     0.52856   0.32440   0.99546   0.00000  Uiso   1.00
C518   C     0.53023   0.29675   0.99336   0.00000  Uiso   1.00
C519   C     0.50781   0.27055   0.01470   0.00000  Uiso   1.00
C520   C     0.48426   0.27231   0.03769   0.00000  Uiso   1.00
C521   C     0.48362   0.30043   0.03917   0.00000  Uiso   1.00
C522   C     0.55353   0.29456   0.97019   0.00000  Uiso   1.00
C523   C     0.55485   0.26697   0.96932   0.00000  Uiso   1.00
C524   C     0.53275   0.24083   0.99107   0.00000  Uiso   1.00
C525   C     0.50890   0.24248   0.01301   0.00000  Uiso   1.00
C526   C     0.48610   0.21611   0.03330   0.00000  Uiso   1.00
C527   C     0.46259   0.21806   0.05570   0.00000  Uiso   1.00
C528   C     0.46179   0.24591   0.05822   0.00000  Uiso   1.00
C529   C     0.53390   0.21305   0.99180   0.00000  Uiso   1.00
C530   C     0.48753   0.18845   0.03099   0.00000  Uiso   1.00
C531   C     0.51331   0.15953   0.01307   0.00000  Uiso   1.00
C532   C     0.49548   0.14396   0.90188   0.00000  Uiso   1.00
C533   C     0.50797   0.11156   0.96351   0.00000  Uiso   1.00
C534   C     0.53176   0.17503   0.12319   0.00000  Uiso   1.00
C535   C     0.52350   0.12505   0.06870   0.00000  Uiso   1.00
C536   C     0.52246   0.15272   0.06720   0.00000  Uiso   1.00
C537   C     0.50589   0.13860   0.96086   0.00000  Uiso   1.00
C538   C     0.51647   0.10474   0.01714   0.00000  Uiso   1.00
H539   H     0.51202   0.17668   0.13428   0.00000  Uiso   1.00
N540   N     0.50543   0.32573   0.01795   0.00000  Uiso   1.00
N541   N     0.51148   0.18760   0.01161   0.00000  Uiso   1.00
H542   H     0.55039   0.19871   0.11810   0.00000  Uiso   1.00
H543   H     0.47258   0.38680   0.92938   0.00000  Uiso   1.00
H544   H     0.52272   0.42204   0.10471   0.00000  Uiso   1.00
H545   H     0.46197   0.33854   0.87902   0.00000  Uiso   1.00
H546   H     0.49060   0.32838   0.89807   0.00000  Uiso   1.00
H547   H     0.45530   0.30961   0.92691   0.00000  Uiso   1.00
H548   H     0.55237   0.37139   0.10753   0.00000  Uiso   1.00
H549   H     0.54338   0.39509   0.15450   0.00000  Uiso   1.00
H550   H     0.51808   0.35312   0.13952   0.00000  Uiso   1.00
O551   O     0.46076   0.30241   0.06141   0.00000  Uiso   1.00
O552   O     0.55010   0.35007   0.97449   0.00000  Uiso   1.00
H553   H     0.57086   0.31414   0.95271   0.00000  Uiso   1.00
H554   H     0.44343   0.24661   0.07612   0.00000  Uiso   1.00
H555   H     0.57316   0.26613   0.95136   0.00000  Uiso   1.00
H556   H     0.47243   0.12378   0.88326   0.00000  Uiso   1.00
H557   H     0.49417   0.16567   0.90388   0.00000  Uiso   1.00
H558   H     0.50255   0.09553   0.92374   0.00000  Uiso   1.00
H559   H     0.44486   0.19815   0.07179   0.00000  Uiso   1.00
H560   H     0.54016   0.16703   0.16056   0.00000  Uiso   1.00
O561   O     0.46493   0.16221   0.04878   0.00000  Uiso   1.00
O562   O     0.55762   0.21142   0.97272   0.00000  Uiso   1.00
H563   H     0.51152   0.14565   0.87176   0.00000  Uiso   1.00
loop_
_geom_bond_atom_site_label_1
_geom_bond_atom_site_label_2
_geom_bond_distance
_geom_bond_site_symmetry_2
_ccdc_geom_bond_type
Gd0    O6      2.240   .     S
Gd0    O8      2.225   .     S
Gd0    O11     2.218   .     S
Gd0    O3      2.161   1_556 S
Gd0    O4      2.229   1_556 S
Gd0    O7      2.252   1_556 S
Gd1    O2      2.195   .     S
Gd1    O13     2.219   .     S
Gd1    O14     2.261   .     S
Gd1    O5      2.272   1_554 S
Gd1    O10     2.144   1_554 S
Gd1    O15     2.235   1_554 S
O2     C16     1.256   .     A
O3     C16     1.245   .     A
O3     Gd0     2.161   1_554 S
O4     C12     1.299   .     A
O4     Gd0     2.229   1_554 S
O5     Gd1     2.272   1_556 S
O5     C12     1.302   1_556 A
O6     C9      1.277   .     A
O7     Gd0     2.252   1_554 S
O7     C9      1.278   1_554 A
O8     C19     1.264   .     A
C9     O7      1.278   1_556 A
C9     C509    1.495   1_556 S
O10    C19     1.250   .     A
O10    Gd1     2.144   1_556 S
O11    C18     1.283   1_556 A
C12    C229    1.467   .     S
C12    O5      1.302   1_554 A
O13    C18     1.284   .     A
O14    C17     1.272   .     A
O15    Gd1     2.235   1_556 S
O15    C17     1.261   1_556 A
C16    C61     1.428   .     S
C17    O15     1.261   1_554 A
C17    C482    1.478   1_554 S
C18    C370    1.466   .     S
C18    O11     1.283   1_554 A
C19    C90     1.447   .     S
Gd20   O26     2.196   .     S
Gd20   O31     2.267   .     S
Gd20   O23     2.209   1_656 S
Gd20   O24     2.293   1_656 S
Gd20   O27     2.218   1_556 S
Gd20   O28     2.226   1_655 S
Gd21   O22     2.213   .     S
Gd21   O25     2.246   .     S
Gd21   O34     2.190   .     S
Gd21   O30     2.266   1_554 S
Gd21   O33     2.245   1_454 S
Gd21   O35     2.264   1_554 S
O22    C36     1.256   .     A
O23    C36     1.270   .     A
O23    Gd20    2.209   1_454 S
O24    C32     1.285   .     A
O24    Gd20    2.293   1_454 S
O25    C32     1.269   .     A
O26    C29     1.278   1_556 A
O27    C29     1.289   .     A
O27    Gd20    2.218   1_554 S
O28    C39     1.282   .     A
O28    Gd20    2.226   1_455 S
C29    C341    1.472   .     S
C29    O26     1.278   1_554 A
O30    C39     1.287   .     A
O30    Gd21    2.266   1_556 S
O31    C38     1.281   .     A
C32    C426    1.475   .     S
O33    C38     1.281   .     A
O33    Gd21    2.245   1_656 S
O34    C37     1.266   .     A
O35    Gd21    2.264   1_556 S
O35    C37     1.278   1_556 A
C36    C146    1.476   .     S
C37    O35     1.278   1_554 A
C37    C258    1.475   1_554 S
C38    C285    1.467   .     S
C39    C117    1.465   .     S
Gd40   O48     2.253   .     S
Gd40   O43     2.221   1_556 S
Gd40   O44     2.261   1_556 S
Gd40   O46     2.178   1_545 S
Gd40   O47     2.215   1_546 S
Gd40   O51     2.250   1_545 S
Gd41   O42     2.243   .     S
Gd41   O45     2.270   .     S
Gd41   O53     2.223   .     S
Gd41   O54     2.182   .     S
Gd41   O50     2.274   1_554 S
Gd41   O55     2.236   1_554 S
O42    C56     1.253   .     A
O43    C56     1.270   .     A
O43    Gd40    2.221   1_554 S
O44    C52     1.275   .     A
O44    Gd40    2.261   1_554 S
O45    C52     1.277   .     A
O46    C49     1.281   .     A
O46    Gd40    2.178   1_565 S
O47    Gd40    2.215   1_564 S
O47    C49     1.291   1_554 A
O48    C59     1.257   .     A
C49    O47     1.291   1_556 A
C49    C397    1.471   1_556 S
O50    C59     1.279   .     A
O50    Gd41    2.274   1_556 S
O51    C58     1.282   .     A
O51    Gd40    2.250   1_565 S
C52    C538    1.454   .     S
O53    C58     1.279   1_544 A
O54    C57     1.276   .     A
O55    Gd41    2.236   1_556 S
O55    C57     1.284   1_556 A
C56    C173    1.483   .     S
C57    O55     1.284   1_554 A
C57    C314    1.464   1_554 S
C58    O53     1.279   1_566 A
C58    C453    1.464   1_556 S
C59    C202    1.499   .     S
H60    C87     1.084   .     S
C61    C62     1.405   .     A
C61    C66     1.387   .     A
C62    C63     1.397   .     A
C62    H95     1.086   .     S
C63    C64     1.406   .     A
C63    C67     1.508   .     S
C64    C65     1.410   .     A
C64    N92     1.418   .     S
C65    C66     1.387   .     A
C65    C68     1.503   .     S
C66    H96     1.082   .     S
C67    H97     1.111   .     S
C67    H98     1.111   .     S
C67    H99     1.112   .     S
C68    H100    1.109   .     S
C68    H101    1.111   .     S
C68    H102    1.110   .     S
C69    C70     1.394   .     A
C69    N92     1.365   .     A
C69    O104    1.373   .     S
C70    C71     1.410   .     A
C70    C74     1.403   .     A
C71    C72     1.409   .     A
C71    C77     1.401   .     A
C72    C73     1.392   .     A
C72    C80     1.403   .     A
C73    N92     1.366   .     A
C73    O103    1.374   .     S
C74    C75     1.391   .     A
C74    H105    1.083   .     S
C75    C76     1.403   .     A
C75    H107    1.083   .     S
C76    C77     1.409   .     A
C76    C81     1.393   .     A
C77    C78     1.410   .     A
C78    C79     1.403   .     A
C78    C82     1.392   .     A
C79    C80     1.391   .     A
C79    H111    1.084   .     S
C80    H106    1.083   .     S
C81    N93     1.366   .     A
C81    O114    1.374   .     S
C82    N93     1.365   .     A
C82    O113    1.374   .     S
C83    C88     1.408   .     A
C83    C89     1.412   .     A
C83    N93     1.419   .     S
C84    C89     1.506   .     S
C84    H108    1.110   .     S
C84    H109    1.108   .     S
C84    H115    1.111   .     S
C85    C89     1.390   .     A
C85    C90     1.397   .     A
C85    H110    1.085   .     S
C86    C88     1.508   .     S
C86    H91     1.109   .     S
C86    H94     1.110   .     S
C86    H112    1.112   .     S
C87    C88     1.386   .     A
C87    C90     1.399   .     A
H116   C143    1.085   .     S
C117   C118    1.407   .     A
C117   C122    1.392   .     A
C118   C119    1.411   .     A
C118   H151    1.087   .     S
C119   C120    1.416   .     A
C119   C123    1.506   .     S
C120   C121    1.415   .     A
C120   N148    1.448   .     S
C121   C122    1.404   .     A
C121   C124    1.504   .     S
C122   H152    1.083   .     S
C123   H153    1.113   .     S
C123   H154    1.108   .     S
C123   H155    1.109   .     S
C124   H156    1.110   .     S
C124   H157    1.112   .     S
C124   H158    1.110   .     S
C125   C126    1.409   .     A
C125   N148    1.372   .     A
C125   O160    1.374   1_455 S
C126   C127    1.409   .     A
C126   C130    1.405   1_455 A
C127   C128    1.409   .     A
C127   C133    1.421   .     A
C128   C129    1.411   .     A
C128   C136    1.407   .     A
C129   N148    1.372   .     A
C129   O159    1.373   .     S
C130   C131    1.400   .     A
C130   H161    1.083   .     S
C130   C126    1.405   1_655 A
C131   C132    1.407   .     A
C131   H163    1.083   .     S
C132   C137    1.412   .     A
C132   C133    1.408   1_655 A
C133   C134    1.409   .     A
C133   C132    1.408   1_455 A
C134   C135    1.407   .     A
C134   C138    1.414   .     A
C135   C136    1.402   .     A
C135   H167    1.084   .     S
C136   H162    1.083   .     S
C137   O170    1.373   .     S
C137   N149    1.374   1_655 A
C138   N149    1.373   .     A
C138   O169    1.373   .     S
C139   C144    1.422   .     A
C139   C145    1.415   .     A
C139   N149    1.453   .     S
C140   C145    1.505   .     S
C140   H164    1.111   .     S
C140   H165    1.105   .     S
C140   H171    1.109   1_455 S
C141   C145    1.396   .     A
C141   C146    1.401   .     A
C141   H166    1.087   .     S
C142   C144    1.504   .     S
C142   H147    1.109   .     S
C142   H150    1.109   .     S
C142   H168    1.109   .     S
C143   C144    1.418   .     A
C143   C146    1.406   .     A
N149   C137    1.374   1_455 A
O160   C125    1.374   1_655 S
H171   C140    1.109   1_655 S
H172   C199    1.083   .     S
C173   C174    1.402   .     A
C173   C178    1.404   .     A
C174   C175    1.412   .     A
C174   H207    1.084   1_545 S
C175   C176    1.417   .     A
C175   C179    1.503   1_545 S
C176   C177    1.416   .     A
C176   N204    1.458   .     S
C177   C178    1.413   .     A
C177   C180    1.505   .     S
C178   H208    1.084   .     S
C179   H209    1.111   .     S
C179   H210    1.110   .     S
C179   H211    1.110   .     S
C179   C175    1.503   1_565 S
C180   H212    1.110   .     S
C180   H213    1.111   .     S
C180   H214    1.110   .     S
C181   C182    1.416   .     A
C181   N204    1.375   .     A
C181   O216    1.373   .     S
C182   C183    1.408   .     A
C182   C186    1.408   .     A
C183   C184    1.409   .     A
C183   C189    1.424   .     A
C184   C185    1.416   .     A
C184   C192    1.407   .     A
C185   N204    1.374   .     A
C185   O215    1.372   .     S
C186   C187    1.403   .     A
C186   H217    1.083   .     S
C187   C188    1.407   .     A
C187   H219    1.083   .     S
C188   C189    1.409   .     A
C188   C193    1.417   .     A
C189   C190    1.408   .     A
C190   C191    1.407   .     A
C190   C194    1.414   .     A
C191   C192    1.402   .     A
C191   H223    1.083   1_545 S
C192   H218    1.083   1_545 S
C193   N205    1.375   .     A
C193   O226    1.372   .     S
C194   N205    1.375   .     A
C194   O225    1.373   .     S
C195   C200    1.420   .     A
C195   C201    1.421   .     A
C195   N205    1.458   .     S
C196   H220    1.111   .     S
C196   H221    1.108   .     S
C196   H227    1.110   .     S
C196   C201    1.506   1_565 S
C197   C201    1.414   .     A
C197   C202    1.403   .     A
C197   H222    1.084   .     S
C198   C200    1.504   .     S
C198   H203    1.109   .     S
C198   H206    1.110   .     S
C198   H224    1.111   .     S
C199   C200    1.409   .     A
C199   C202    1.396   .     A
C201   C196    1.506   1_545 S
H207   C174    1.084   1_565 S
H218   C192    1.083   1_565 S
H223   C191    1.083   1_565 S
H228   C255    1.084   .     S
C229   C234    1.401   .     A
C229   C230    1.399   1_554 A
C230   C231    1.400   .     A
C230   H263    1.084   .     S
C230   C229    1.399   1_556 A
C231   C232    1.411   .     A
C231   C235    1.505   .     S
C232   N260    1.442   .     S
C232   C233    1.414   1_556 A
C233   C234    1.407   .     A
C233   C236    1.506   .     S
C233   C232    1.414   1_554 A
C234   H264    1.083   .     S
C235   H265    1.111   .     S
C235   H266    1.110   .     S
C235   H267    1.110   .     S
C236   H268    1.110   .     S
C236   H269    1.111   .     S
C236   H270    1.111   .     S
C237   C238    1.402   .     A
C237   N260    1.369   .     A
C237   O272    1.373   .     S
C238   C239    1.408   .     A
C238   C242    1.404   .     A
C239   C245    1.414   .     A
C239   C240    1.410   1_556 A
C240   C241    1.410   .     A
C240   C248    1.407   .     A
C240   C239    1.410   1_554 A
C241   O271    1.372   .     S
C241   N260    1.371   1_554 A
C242   C243    1.395   .     A
C242   H273    1.083   .     S
C243   C244    1.404   .     A
C243   H275    1.083   .     S
C244   C245    1.409   .     A
C244   C249    1.404   .     A
C245   C246    1.407   1_556 A
C246   C247    1.407   .     A
C246   C250    1.408   .     A
C246   C245    1.407   1_554 A
C247   C248    1.400   .     A
C247   H279    1.083   .     S
C248   H274    1.083   .     S
C249   N261    1.370   .     A
C249   O282    1.373   .     S
C250   O281    1.373   .     S
C250   N261    1.372   1_554 A
C251   C257    1.422   .     A
C251   N261    1.443   .     S
C251   C256    1.411   1_556 A
C252   C257    1.507   .     S
C252   H276    1.110   .     S
C252   H277    1.109   .     S
C252   H283    1.110   .     S
C253   C257    1.410   .     A
C253   C258    1.401   .     A
C253   H278    1.085   .     S
C254   C256    1.508   .     S
C254   H259    1.108   .     S
C254   H262    1.110   .     S
C254   H280    1.111   .     S
C255   C256    1.393   .     A
C255   C258    1.400   1_554 A
C256   C251    1.411   1_554 A
C258   C255    1.400   1_556 A
C258   C37     1.475   1_556 S
N260   C241    1.371   1_556 A
N261   C250    1.372   1_556 A
H284   C311    1.084   .     S
C285   C290    1.398   .     A
C285   C286    1.399   1_556 A
C286   C287    1.404   .     A
C286   H319    1.084   .     S
C286   C285    1.399   1_554 A
C287   C291    1.507   .     S
C287   C288    1.412   1_554 A
C288   C289    1.415   .     A
C288   N316    1.443   .     S
C288   C287    1.412   1_556 A
C289   C290    1.407   .     A
C289   C292    1.506   .     S
C290   H320    1.084   .     S
C291   H321    1.111   .     S
C291   H322    1.110   .     S
C291   H323    1.111   .     S
C292   H324    1.110   .     S
C292   H325    1.111   .     S
C292   H326    1.111   .     S
C293   C294    1.406   .     A
C293   O328    1.373   .     S
C293   N316    1.371   1_554 A
C294   C298    1.406   .     A
C294   C295    1.408   1_554 A
C295   C296    1.409   .     A
C295   C294    1.408   1_556 A
C295   C301    1.414   1_556 A
C296   C297    1.406   .     A
C296   C304    1.405   .     A
C297   N316    1.370   .     A
C297   O327    1.373   .     S
C298   C299    1.397   .     A
C298   H329    1.083   .     S
C299   C300    1.405   .     A
C299   H331    1.083   .     S
C300   C301    1.408   .     A
C300   C305    1.405   .     A
C301   C295    1.414   1_554 A
C301   C302    1.408   1_554 A
C302   C303    1.405   .     A
C302   C306    1.405   .     A
C302   C301    1.408   1_556 A
C303   C304    1.398   .     A
C303   H335    1.083   .     S
C304   H330    1.083   .     S
C305   N317    1.371   .     A
C305   O338    1.373   .     S
C306   O337    1.373   .     S
C306   N317    1.370   1_556 A
C307   C312    1.420   .     A
C307   C313    1.414   1_556 A
C307   N317    1.441   1_556 S
C308   C313    1.507   .     S
C308   H332    1.111   .     S
C308   H333    1.106   .     S
C308   H339    1.111   .     S
C309   C313    1.391   .     A
C309   H334    1.085   .     S
C309   C314    1.397   1_554 A
C310   C312    1.506   .     S
C310   H315    1.109   .     S
C310   H318    1.111   .     S
C310   H336    1.111   .     S
C311   C312    1.408   .     A
C311   C314    1.399   .     A
C313   C307    1.414   1_554 A
C314   C309    1.397   1_556 A
C314   C57     1.464   1_556 S
N316   C293    1.371   1_556 A
N317   C306    1.370   1_554 A
N317   C307    1.441   1_554 S
H340   C367    1.084   .     S
C341   C342    1.399   .     A
C341   C346    1.403   .     A
C342   C343    1.403   .     A
C342   H375    1.084   .     S
C343   C344    1.411   .     A
C343   C347    1.504   .     S
C344   C345    1.413   .     A
C344   N372    1.441   .     S
C345   C346    1.407   .     A
C345   C348    1.505   .     S
C346   H376    1.084   .     S
C347   H377    1.111   .     S
C347   H378    1.110   .     S
C347   H379    1.110   .     S
C348   H381    1.110   .     S
C348   H382    1.111   .     S
C348   H380    1.110   1_554 S
C349   C350    1.406   .     A
C349   O384    1.373   .     S
C349   N372    1.371   1_556 A
C350   C354    1.407   .     A
C350   C351    1.409   1_556 A
C351   C352    1.409   .     A
C351   C357    1.412   .     A
C351   C350    1.409   1_554 A
C352   C353    1.404   .     A
C352   C360    1.405   .     A
C353   N372    1.369   .     A
C353   O383    1.373   .     S
C354   C355    1.398   .     A
C354   H385    1.083   .     S
C355   C356    1.405   .     A
C355   H387    1.084   .     S
C356   C361    1.405   .     A
C356   C357    1.409   1_556 A
C357   C358    1.408   .     A
C357   C356    1.409   1_554 A
C358   C359    1.404   .     A
C358   C362    1.401   .     A
C359   C360    1.395   .     A
C359   H391    1.083   .     S
C360   H386    1.083   .     S
C361   O394    1.373   .     S
C361   N373    1.370   1_556 A
C362   N373    1.369   .     A
C362   O393    1.374   .     S
C363   C368    1.415   .     A
C363   C369    1.415   .     A
C363   N373    1.436   .     S
C364   C369    1.506   .     S
C364   H388    1.111   .     S
C364   H389    1.107   1_554 S
C364   H395    1.111   1_554 S
C365   C369    1.397   .     A
C365   C370    1.399   .     A
C365   H390    1.084   1_554 S
C366   C368    1.507   .     S
C366   H371    1.109   .     S
C366   H392    1.112   .     S
C366   H374    1.110   1_554 S
C367   C368    1.397   .     A
C367   C370    1.399   .     A
N372   C349    1.371   1_554 A
N373   C361    1.370   1_554 A
H374   C366    1.110   1_556 S
H380   C348    1.110   1_556 S
H389   C364    1.107   1_556 S
H390   C365    1.084   1_556 S
H395   C364    1.111   1_556 S
H396   C423    1.085   .     S
C397   C398    1.399   .     A
C397   C402    1.402   1_554 A
C397   C49     1.471   1_554 S
C398   C399    1.405   .     A
C398   H431    1.084   .     S
C399   C400    1.414   .     A
C399   C403    1.504   .     S
C400   N428    1.440   .     S
C400   C401    1.410   1_554 A
C401   C402    1.398   .     A
C401   C404    1.507   .     S
C401   C400    1.410   1_556 A
C402   H432    1.084   .     S
C402   C397    1.402   1_556 A
C403   H433    1.111   .     S
C403   H434    1.110   .     S
C403   H435    1.111   .     S
C404   H436    1.110   .     S
C404   H437    1.111   .     S
C404   H438    1.110   .     S
C405   C406    1.405   .     A
C405   N428    1.370   .     A
C405   O440    1.373   .     S
C406   C407    1.408   .     A
C406   C410    1.405   .     A
C407   C408    1.409   .     A
C407   C413    1.416   .     A
C408   C409    1.407   .     A
C408   C416    1.405   1_554 A
C409   N428    1.369   .     A
C409   O439    1.373   1_554 S
C410   C411    1.397   .     A
C410   H441    1.083   .     S
C411   C412    1.405   .     A
C411   H443    1.083   .     S
C412   C413    1.409   .     A
C412   C417    1.407   .     A
C413   C414    1.408   .     A
C414   C418    1.409   .     A
C414   C415    1.407   1_554 A
C415   C416    1.399   .     A
C415   H447    1.083   .     S
C415   C414    1.407   1_556 A
C416   H442    1.084   .     S
C416   C408    1.405   1_556 A
C417   N429    1.371   .     A
C417   O450    1.373   .     S
C418   N429    1.373   .     A
C418   O449    1.373   .     S
C419   C425    1.420   .     A
C419   N429    1.448   .     S
C419   C424    1.415   1_554 A
C420   C425    1.506   .     S
C420   H444    1.110   .     S
C420   H445    1.108   .     S
C420   H451    1.111   .     S
C421   C425    1.407   .     A
C421   C426    1.398   .     A
C421   H446    1.085   .     S
C422   C424    1.509   .     S
C422   H427    1.109   .     S
C422   H430    1.111   .     S
C422   H448    1.111   .     S
C423   C424    1.405   .     A
C423   C426    1.403   1_556 A
C424   C419    1.415   1_556 A
C426   C423    1.403   1_554 A
O439   C409    1.373   1_556 S
H452   C479    1.084   .     S
C453   C458    1.402   .     A
C453   C454    1.400   1_554 A
C453   C58     1.464   1_554 S
C454   C455    1.397   .     A
C454   H487    1.084   .     S
C454   C453    1.400   1_556 A
C455   C459    1.504   .     S
C455   C456    1.411   1_556 A
C456   C457    1.410   .     A
C456   N484    1.432   .     S
C456   C455    1.411   1_554 A
C457   C458    1.396   .     A
C457   C460    1.506   .     S
C458   H488    1.084   .     S
C459   H489    1.111   .     S
C459   H490    1.110   .     S
C459   H491    1.110   .     S
C460   H492    1.110   .     S
C460   H493    1.111   .     S
C460   H494    1.111   .     S
C461   C462    1.401   .     A
C461   O496    1.374   .     S
C461   N484    1.368   1_556 A
C462   C463    1.408   .     A
C462   C466    1.404   .     A
C463   C469    1.411   .     A
C463   C464    1.410   1_556 A
C464   C465    1.402   .     A
C464   C472    1.404   .     A
C464   C463    1.410   1_554 A
C465   N484    1.367   .     A
C465   O495    1.373   .     S
C466   C467    1.397   .     A
C466   H497    1.084   .     S
C467   C468    1.406   .     A
C467   H499    1.083   .     S
C468   C469    1.410   .     A
C468   C473    1.406   .     A
C469   C470    1.408   1_556 A
C470   C471    1.406   .     A
C470   C474    1.402   .     A
C470   C469    1.408   1_554 A
C471   C472    1.395   .     A
C471   H503    1.083   .     S
C472   H498    1.084   .     S
C473   N485    1.371   .     A
C473   O506    1.373   .     S
C474   O505    1.373   .     S
C474   N485    1.370   1_554 A
C475   C481    1.417   .     A
C475   N485    1.441   .     S
C475   C480    1.412   1_556 A
C476   C481    1.505   .     S
C476   H500    1.110   .     S
C476   H501    1.109   .     S
C476   H507    1.111   .     S
C477   C481    1.406   .     A
C477   C482    1.401   .     A
C477   H502    1.085   .     S
C478   C480    1.508   .     S
C478   H483    1.110   .     S
C478   H486    1.110   .     S
C478   H504    1.110   .     S
C479   C480    1.401   .     A
C479   C482    1.402   1_554 A
C480   C475    1.412   1_554 A
C482   C479    1.402   1_556 A
C482   C17     1.478   1_556 S
N484   C461    1.368   1_554 A
N485   C474    1.370   1_556 A
H508   C535    1.084   .     S
C509   C514    1.409   .     A
C509   C510    1.405   1_554 A
C509   C9      1.495   1_554 S
C510   C511    1.408   .     A
C510   H543    1.083   .     S
C510   C509    1.405   1_556 A
C511   C515    1.507   .     S
C511   C512    1.412   1_556 A
C512   C513    1.413   .     A
C512   N540    1.448   .     S
C512   C511    1.412   1_554 A
C513   C514    1.412   .     A
C513   C516    1.508   .     S
C514   H544    1.083   .     S
C515   H545    1.110   .     S
C515   H546    1.110   .     S
C515   H547    1.110   .     S
C516   H548    1.111   .     S
C516   H549    1.110   .     S
C516   H550    1.110   .     S
C517   C518    1.411   .     A
C517   O552    1.372   .     S
C517   N540    1.373   1_556 A
C518   C522    1.408   .     A
C518   C519    1.409   1_556 A
C519   C520    1.408   .     A
C519   C525    1.415   .     A
C519   C518    1.409   1_554 A
C520   C521    1.406   .     A
C520   C528    1.406   .     A
C521   N540    1.371   .     A
C521   O551    1.373   .     S
C522   C523    1.399   .     A
C522   H553    1.083   .     S
C523   C524    1.405   .     A
C523   H555    1.084   .     S
C524   C529    1.407   .     A
C524   C525    1.409   1_556 A
C525   C526    1.409   .     A
C525   C524    1.409   1_554 A
C526   C527    1.404   .     A
C526   C530    1.404   .     A
C527   C528    1.396   .     A
C527   H559    1.083   .     S
C528   H554    1.083   .     S
C529   O562    1.373   .     S
C529   N541    1.371   1_556 A
C530   N541    1.370   .     A
C530   O561    1.374   .     S
C531   C536    1.417   .     A
C531   N541    1.440   .     S
C531   C537    1.418   1_554 A
C532   C537    1.506   .     S
C532   H556    1.111   .     S
C532   H557    1.108   .     S
C532   H563    1.111   .     S
C533   C537    1.399   .     A
C533   H558    1.084   .     S
C533   C538    1.396   1_556 A
C534   C536    1.506   .     S
C534   H539    1.109   .     S
C534   H542    1.110   .     S
C534   H560    1.112   .     S
C535   C536    1.399   .     A
C535   C538    1.393   .     A
C537   C531    1.418   1_556 A
C538   C533    1.396   1_554 A
N540   C517    1.373   1_554 A
N541   C529    1.371   1_554 A
