data_kag+N505+E229
_audit_creation_date              2025-01-21
_audit_creation_method            'Materials Studio'
_symmetry_space_group_name_H-M    'P1'
_symmetry_Int_Tables_number       1
_symmetry_cell_setting            triclinic
loop_
_symmetry_equiv_pos_as_xyz
  x,y,z
_cell_length_a                    48.3253
_cell_length_b                    42.2312
_cell_length_c                    24.4905
_cell_angle_alpha                 97.0925
_cell_angle_beta                  98.8858
_cell_angle_gamma                 110.8232
loop_
_atom_site_label
_atom_site_type_symbol
_atom_site_fract_x
_atom_site_fract_y
_atom_site_fract_z
_atom_site_U_iso_or_equiv
_atom_site_adp_type
_atom_site_occupancy
Yb0    Yb    0.54346   0.50339   0.94971   0.00000  Uiso   1.00
Yb1    Yb    0.45528   0.48776   0.01988   0.00000  Uiso   1.00
C2     C     0.41162   0.48529   0.07148   0.00000  Uiso   1.00
O3     O     0.50520   0.48385   0.88482   0.00000  Uiso   1.00
O4     O     0.54412   0.52987   0.88056   0.00000  Uiso   1.00
O5     O     0.52201   0.53424  -0.00702   0.00000  Uiso   1.00
O6     O     0.48696   0.54205   1.03732   0.00000  Uiso   1.00
O7     O     0.57108   0.47989   0.92030   0.00000  Uiso   1.00
O8     O     0.58852   0.52072  -0.00291   0.00000  Uiso   1.00
O9     O     0.48617   0.52723   0.09236   0.00000  Uiso   1.00
O10    O     0.46676   0.47623   0.10350   0.00000  Uiso   1.00
C11    C     0.51716   0.50725   0.85736   0.00000  Uiso   1.00
O12    O     0.52876   0.46035  -0.00807   0.00000  Uiso   1.00
O13    O     0.49233   0.47491   1.00745   0.00000  Uiso   1.00
O14    O     0.41889   0.50352   0.03506   0.00000  Uiso   1.00
C15    C     0.51135   0.55442   1.01804   0.00000  Uiso   1.00
O16    O     0.42759   0.46750   1.07990   0.00000  Uiso   1.00
C17    C     0.59225   0.49658   0.96463   0.00000  Uiso   1.00
C18    C     0.48614   0.50610   0.12443   0.00000  Uiso   1.00
C19    C     0.50148   0.45098  -0.00339   0.00000  Uiso   1.00
Yb20   Yb    0.02687   0.54600   0.96386   0.00000  Uiso   1.00
Yb21   Yb    0.97899   0.46848   0.04218   0.00000  Uiso   1.00
C22    C     0.93886   0.41432   0.04887   0.00000  Uiso   1.00
O23    O     0.00594   0.49722   0.91239   0.00000  Uiso   1.00
O24    O     1.00809   0.54188   0.87544   0.00000  Uiso   1.00
O25    O     0.98589   0.53588   0.99413   0.00000  Uiso   1.00
O26    O     0.95495   0.48089   0.96894   0.00000  Uiso   1.00
O27    O     0.07036   0.56608   0.94731   0.00000  Uiso   1.00
O28    O     0.05519   0.59786   0.00358   0.00000  Uiso   1.00
O29    O     0.99452   0.51680   0.09484   0.00000  Uiso   1.00
O30    O     0.00040   0.47294   0.12699   0.00000  Uiso   1.00
C31    C     1.00253   0.50913   0.86773   0.00000  Uiso   1.00
O32    O     0.04527   0.52820   0.03232   0.00000  Uiso   1.00
O33    O     0.02048   0.47225   0.01356   0.00000  Uiso   1.00
O34    O     0.93768   0.44370   0.06740   0.00000  Uiso   1.00
C35    C     0.96106   0.51283   0.96595   0.00000  Uiso   1.00
O36    O     0.95861   0.41479   1.01904   0.00000  Uiso   1.00
C37    C     0.07731   0.59312   0.98511   0.00000  Uiso   1.00
C38    C     0.00114   0.50399   0.13757   0.00000  Uiso   1.00
C39    C     0.04460   0.49815   0.01628   0.00000  Uiso   1.00
Yb40   Yb    0.46038   0.99944   0.04284   0.00000  Uiso   1.00
Yb41   Yb    0.55227   0.01007   0.96870   0.00000  Uiso   1.00
C42    C     0.58737   0.07089   0.96012   0.00000  Uiso   1.00
O43    O     0.49080   0.98580   0.10075   0.00000  Uiso   1.00
O44    O     0.49068  -0.01416   0.10076   0.00000  Uiso   1.00
O45    O     0.49677   0.02785   0.00655   0.00000  Uiso   1.00
O46    O     0.54654   0.05238   0.02316   0.00000  Uiso   1.00
O47    O     0.42037   0.96649   0.06685   0.00000  Uiso   1.00
O48    O     0.43483   0.94763   0.99575   0.00000  Uiso   1.00
O49    O     0.52799   0.01099   0.88853   0.00000  Uiso   1.00
O50    O     0.55027   0.97522   0.89576   0.00000  Uiso   1.00
C51    C     0.49236  -0.01486   0.15297   0.00000  Uiso   1.00
O52    O     0.46113   0.95666   0.97996   0.00000  Uiso   1.00
O53    O     0.51072   0.97937   0.99147   0.00000  Uiso   1.00
O54    O     0.59399   0.04468   0.94939   0.00000  Uiso   1.00
C55    C     0.52103   0.05235   0.03292   0.00000  Uiso   1.00
O56    O     0.56345   0.06463  -0.02089   0.00000  Uiso   1.00
C57    C     0.41355   0.94378   0.02267   0.00000  Uiso   1.00
C58    C     0.53775   0.99017   0.86345   0.00000  Uiso   1.00
C59    C     0.48562   0.95555   0.96632   0.00000  Uiso   1.00
C60    C     0.52430   0.52796   0.27864   0.00000  Uiso   1.00
C61    C     0.55312   0.52855   0.27430   0.00000  Uiso   1.00
C62    C     0.55970   0.52219   0.22152   0.00000  Uiso   1.00
C63    C     0.53767   0.51532   0.17280   0.00000  Uiso   1.00
C64    C     0.50870   0.51414   0.17658   0.00000  Uiso   1.00
C65    C     0.50184   0.52003   0.22945   0.00000  Uiso   1.00
C66    C     0.51844   0.53829   0.33523   0.00000  Uiso   1.00
H67    H     0.57061   0.53446   0.31168   0.00000  Uiso   1.00
H68    H     0.58189   0.52275   0.21814   0.00000  Uiso   1.00
H69    H     0.54305   0.51078   0.13192   0.00000  Uiso   1.00
H70    H     0.47945   0.51928   0.23224   0.00000  Uiso   1.00
H71    H     0.53655   0.56381   0.35580   0.00000  Uiso   1.00
H72    H     0.49625   0.54121   0.33034   0.00000  Uiso   1.00
C73    C     0.48747   0.48581   0.70076   0.00000  Uiso   1.00
C74    C     0.50831   0.49670   0.75286   0.00000  Uiso   1.00
C75    C     0.49529   0.47190   0.64834   0.00000  Uiso   1.00
C76    C     0.50225   0.48221   0.55575   0.00000  Uiso   1.00
C77    C     0.50890   0.51044   0.52081   0.00000  Uiso   1.00
C78    C     0.45835   0.48609   0.69833   0.00000  Uiso   1.00
C79    C     0.44991   0.49650   0.74729   0.00000  Uiso   1.00
C80    C     0.49971   0.50663   0.80231   0.00000  Uiso   1.00
H81    H     0.44187   0.47722   0.65877   0.00000  Uiso   1.00
H82    H     0.42710   0.49558   0.74545   0.00000  Uiso   1.00
H83    H     0.46278   0.51220   0.83717   0.00000  Uiso   1.00
H84    H     0.53042   0.49535   0.75553   0.00000  Uiso   1.00
H85    H     0.47698   0.44645   0.62812   0.00000  Uiso   1.00
C86    C     0.51764   0.52574   0.42758   0.00000  Uiso   1.00
C87    C     0.51169   0.49710   0.46181   0.00000  Uiso   1.00
H88    H     0.52158   0.47356   0.56164   0.00000  Uiso   1.00
H89    H     0.49021   0.52010   0.51724   0.00000  Uiso   1.00
H90    H     0.53042   0.53214   0.54264   0.00000  Uiso   1.00
H91    H     0.48120   0.45996   0.53338   0.00000  Uiso   1.00
H92    H     0.51691   0.46795   0.65872   0.00000  Uiso   1.00
H93    H     0.49928   0.53590   0.42725   0.00000  Uiso   1.00
H94    H     0.53982   0.54684   0.44790   0.00000  Uiso   1.00
N95    N     0.51837   0.51240   0.36996   0.00000  Uiso   1.00
N96    N     0.49816   0.49633   0.61021   0.00000  Uiso   1.00
C97    C     0.47033   0.50634   0.79911   0.00000  Uiso   1.00
C98    C     0.98727   0.47154   0.71060   0.00000  Uiso   1.00
C99    C    -0.00387   0.44348   0.71411   0.00000  Uiso   1.00
C100   C     0.00475   0.43604   0.76616   0.00000  Uiso   1.00
C101   C     0.00493   0.45673   0.81510   0.00000  Uiso   1.00
C102   C     0.99744   0.48608   0.81317   0.00000  Uiso   1.00
C103   C     0.98836   0.49329   0.76038   0.00000  Uiso   1.00
C104   C     0.97602   0.47694   0.65334   0.00000  Uiso   1.00
H105   H    -0.00395   0.42711   0.67639   0.00000  Uiso   1.00
H106   H     0.01149   0.41430   0.76880   0.00000  Uiso   1.00
H107   H     0.01217   0.45028   0.85491   0.00000  Uiso   1.00
H108   H     0.98224   0.51544   0.75798   0.00000  Uiso   1.00
H109   H     0.95787   0.45200   0.63003   0.00000  Uiso   1.00
H110   H     0.96591   0.49677   0.65637   0.00000  Uiso   1.00
C111   C     0.01885   0.53084   0.29718   0.00000  Uiso   1.00
C112   C     0.01962   0.51561   0.24308   0.00000  Uiso   1.00
C113   C     0.03497   0.52457   0.34973   0.00000  Uiso   1.00
C114   C     0.02512   0.51496   0.44165   0.00000  Uiso   1.00
C115   C     0.00221   0.49172   0.47040   0.00000  Uiso   1.00
C116   C     1.00230   0.55204   0.30246   0.00000  Uiso   1.00
C117   C     0.98718   0.55861   0.25475   0.00000  Uiso   1.00
C118   C     0.00447   0.52239   0.19489   0.00000  Uiso   1.00
H119   H     1.00085   0.56322   0.34370   0.00000  Uiso   1.00
H120   H     0.97395   0.57441   0.25906   0.00000  Uiso   1.00
H121   H     0.97573   0.54890   0.16493   0.00000  Uiso   1.00
H122   H     0.03166   0.49849   0.23853   0.00000  Uiso   1.00
H123   H     0.05116   0.55012   0.37484   0.00000  Uiso   1.00
C124   C     0.98998   0.47819   0.56307   0.00000  Uiso   1.00
C125   C     0.01359   0.50023   0.53423   0.00000  Uiso   1.00
H126   H     0.04672   0.51078   0.45068   0.00000  Uiso   1.00
H127   H     0.98044   0.49535   0.45990   0.00000  Uiso   1.00
H128   H     0.99826   0.46432   0.45444   0.00000  Uiso   1.00
H129   H     0.02941   0.54243   0.45814   0.00000  Uiso   1.00
H130   H     0.04811   0.50858   0.33956   0.00000  Uiso   1.00
H131   H     0.96851   0.48224   0.55057   0.00000  Uiso   1.00
H132   H     0.98590   0.45051   0.54931   0.00000  Uiso   1.00
N133   N     0.00115   0.48797   0.62416   0.00000  Uiso   1.00
N134   N     0.01258   0.50658   0.38093   0.00000  Uiso   1.00
C135   C     0.98849   0.54421   0.20137   0.00000  Uiso   1.00
C136   C     0.45076   0.98243   0.27021   0.00000  Uiso   1.00
C137   C     0.43000   0.99714   0.25214   0.00000  Uiso   1.00
C138   C     0.43125   1.01121   0.20336   0.00000  Uiso   1.00
C139   C     0.45266   0.00989   0.17149   0.00000  Uiso   1.00
C140   C     0.47172  -0.00755   0.18651   0.00000  Uiso   1.00
C141   C     0.47152   0.98033   0.23726   0.00000  Uiso   1.00
C142   C     0.45058   0.96839   0.32368   0.00000  Uiso   1.00
H143   H     0.41316   0.99803   0.27624   0.00000  Uiso   1.00
H144   H     0.41543   1.02297   0.19023   0.00000  Uiso   1.00
H145   H     0.45394   0.02230   0.13557   0.00000  Uiso   1.00
H146   H     0.48731   0.96850   0.25065   0.00000  Uiso   1.00
H147   H     0.42705   0.95795   0.33070   0.00000  Uiso   1.00
H148   H     0.45859   0.94663   0.31984   0.00000  Uiso   1.00
C149   C     0.53494   0.01371   0.71898   0.00000  Uiso   1.00
C150   C     0.52638   0.00677   0.77001   0.00000  Uiso   1.00
C151   C     0.52036   0.03155   0.68142   0.00000  Uiso   1.00
C152   C     0.50506   0.02388   0.57935   0.00000  Uiso   1.00
C153   C     0.49268   0.99568   0.52651   0.00000  Uiso   1.00
C154   C     0.55761   0.00372   0.70247   0.00000  Uiso   1.00
C155   C     0.57055  -0.01438   0.73478   0.00000  Uiso   1.00
C156   C     0.53999   0.98921   0.80367   0.00000  Uiso   1.00
H157   H     0.56521   0.00995   0.66439   0.00000  Uiso   1.00
H158   H     0.58827  -0.02157   0.72209   0.00000  Uiso   1.00
H159   H     0.57289   0.96532   0.81043   0.00000  Uiso   1.00
H160   H     0.50994   0.01598   0.78428   0.00000  Uiso   1.00
H161   H     0.53839   0.05529   0.67526   0.00000  Uiso   1.00
C162   C     0.47462   0.98144   0.42156   0.00000  Uiso   1.00
C163   C     0.48917   0.01046   0.47323   0.00000  Uiso   1.00
H164   H     0.49087   0.03961   0.58025   0.00000  Uiso   1.00
H165   H     0.50843   0.98195   0.52424   0.00000  Uiso   1.00
H166   H     0.47025   0.97683   0.52933   0.00000  Uiso   1.00
H167   H     0.52875   0.04068   0.57899   0.00000  Uiso   1.00
H168   H     0.50395   0.03959   0.70079   0.00000  Uiso   1.00
H169   H     0.48972   0.96708   0.41692   0.00000  Uiso   1.00
H170   H     0.45247   0.96359   0.42756   0.00000  Uiso   1.00
N171   N     0.47016   0.99593   0.37123   0.00000  Uiso   1.00
N172   N     0.50422   0.00719   0.62832   0.00000  Uiso   1.00
C173   C     0.56154   0.97797   0.78464   0.00000  Uiso   1.00
C174   C     0.34721   0.50600   0.11557   0.00000  Uiso   1.00
C175   C     0.34579   0.49302   0.16557   0.00000  Uiso   1.00
C176   C     0.36502   0.47653   0.18363   0.00000  Uiso   1.00
C177   C     0.38586   0.47292   0.15213   0.00000  Uiso   1.00
C178   C     0.38799   0.48636   0.10262   0.00000  Uiso   1.00
C179   C     0.36841   0.50269   0.08433   0.00000  Uiso   1.00
C180   C     0.32625   0.52343   0.09625   0.00000  Uiso   1.00
H181   H     0.32991   0.49600   0.19083   0.00000  Uiso   1.00
H182   H     0.36397   0.46697   0.22245   0.00000  Uiso   1.00
H183   H     0.40078   0.46042   0.16699   0.00000  Uiso   1.00
H184   H     0.36970   0.51283   0.04585   0.00000  Uiso   1.00
H185   H     0.32776   0.54337   0.13213   0.00000  Uiso   1.00
H186   H     0.33313   0.53663   0.06110   0.00000  Uiso   1.00
C187   C     0.11066   0.47379   0.98628   0.00000  Uiso   1.00
C188   C     0.08846   0.47874   0.01396   0.00000  Uiso   1.00
C189   C     0.13262   0.45936   1.01178   0.00000  Uiso   1.00
C190   C     0.18634   0.47257   0.02091   0.00000  Uiso   1.00
C191   C     0.21731   0.50100   0.04659   0.00000  Uiso   1.00
C192   C     0.11291   0.48309   0.93364   0.00000  Uiso   1.00
C193   C     0.09283   0.49601   0.90776   0.00000  Uiso   1.00
C194   C     0.06859   0.49294  -0.01134   0.00000  Uiso   1.00
H195   H     0.13006   0.47995   0.91231   0.00000  Uiso   1.00
H196   H     0.09425   0.50279   0.86671   0.00000  Uiso   1.00
H197   H     0.05521   0.50854   0.91093   0.00000  Uiso   1.00
H198   H     0.08670   0.47170   0.05469   0.00000  Uiso   1.00
H199   H     0.13108   0.43690   0.98050   0.00000  Uiso   1.00
C200   C     0.27328   0.51390   0.07403   0.00000  Uiso   1.00
C201   C     0.24209   0.48658   0.04650   0.00000  Uiso   1.00
H202   H     0.18294   0.45075   0.04382   0.00000  Uiso   1.00
H203   H     0.22141   0.52206   0.02196   0.00000  Uiso   1.00
H204   H     0.21763   0.51164   0.09064   0.00000  Uiso   1.00
H205   H     0.18521   0.46325   0.97571   0.00000  Uiso   1.00
H206   H     0.12696   0.45010   1.05067   0.00000  Uiso   1.00
H207   H     0.27905   0.53448   0.04852   0.00000  Uiso   1.00
H208   H     0.27301   0.52519   0.11736   0.00000  Uiso   1.00
N209   N     0.29534   0.49752   0.07707   0.00000  Uiso   1.00
N210   N     0.16299   0.48662   0.02549   0.00000  Uiso   1.00
C211   C     0.07061   0.50000   0.93436   0.00000  Uiso   1.00
C212   C     0.87839   0.34229   0.09379   0.00000  Uiso   1.00
C213   C     0.89577   0.32392   0.11358   0.00000  Uiso   1.00
C214   C     0.92623   0.33465   0.11081   0.00000  Uiso   1.00
C215   C     0.93944   0.36339   0.08748   0.00000  Uiso   1.00
C216   C     0.92262   0.38249   0.06818   0.00000  Uiso   1.00
C217   C     0.89212   0.37221   0.07224   0.00000  Uiso   1.00
C218   C     0.84534   0.32932   0.09540   0.00000  Uiso   1.00
H219   H     0.88574   0.30136   0.13146   0.00000  Uiso   1.00
H220   H     0.93969   0.32076   0.12699   0.00000  Uiso   1.00
H221   H     0.96327   0.37152   0.08642   0.00000  Uiso   1.00
H222   H     0.87909   0.38695   0.05793   0.00000  Uiso   1.00
H223   H     0.84291   0.32425   0.13834   0.00000  Uiso   1.00
H224   H     0.83583   0.34906   0.08683   0.00000  Uiso   1.00
C225   C     0.64790   0.14723   0.92566   0.00000  Uiso   1.00
C226   C     0.63370   0.11511   0.94056   0.00000  Uiso   1.00
C227   C     0.68052   0.15969   0.92100   0.00000  Uiso   1.00
C228   C     0.72975   0.20450   0.96221   0.00000  Uiso   1.00
C229   C     0.74744   0.23297   0.01377   0.00000  Uiso   1.00
C230   C     0.63152   0.16836   0.91614   0.00000  Uiso   1.00
C231   C     0.60185   0.15834   0.92382   0.00000  Uiso   1.00
C232   C     0.60375   0.10500   0.94796   0.00000  Uiso   1.00
H233   H     0.64177   0.19270   0.90321   0.00000  Uiso   1.00
H234   H     0.58915   0.17447   0.91634   0.00000  Uiso   1.00
H235   H     0.56509   0.11971   0.94602   0.00000  Uiso   1.00
H236   H     0.64606   0.09844   0.94722   0.00000  Uiso   1.00
H237   H     0.68227   0.16797   0.87977   0.00000  Uiso   1.00
C238   C     0.79789   0.28088   0.05952   0.00000  Uiso   1.00
C239   C     0.78028   0.25143   0.00926   0.00000  Uiso   1.00
H240   H     0.74014   0.18484   0.95949   0.00000  Uiso   1.00
H241   H     0.73639   0.25195   0.01722   0.00000  Uiso   1.00
H242   H     0.74703   0.22141   0.05219   0.00000  Uiso   1.00
H243   H     0.73050   0.21585   0.92356   0.00000  Uiso   1.00
H244   H     0.68914   0.13858   0.92272   0.00000  Uiso   1.00
H245   H     0.78664   0.29974   0.06139   0.00000  Uiso   1.00
H246   H     0.79799   0.27028   0.09891   0.00000  Uiso   1.00
N247   N     0.82904   0.29762   0.05290   0.00000  Uiso   1.00
N248   N     0.69830   0.18858   0.96771   0.00000  Uiso   1.00
C249   C     0.58822   0.12716   0.94051   0.00000  Uiso   1.00
C250   C     0.88853   0.52511   0.90654   0.00000  Uiso   1.00
C251   C     0.90109   0.55891   0.89701   0.00000  Uiso   1.00
C252   C     0.93233   0.57557   0.90440   0.00000  Uiso   1.00
C253   C     0.95137   0.55907   0.92266   0.00000  Uiso   1.00
C254   C     0.93955   0.52554   0.93451   0.00000  Uiso   1.00
C255   C     0.90785   0.50825   0.92489   0.00000  Uiso   1.00
C256   C     0.85461   0.50774   0.89694   0.00000  Uiso   1.00
H257   H     0.88667   0.57237   0.88371   0.00000  Uiso   1.00
H258   H     0.94195   0.60170   0.89718   0.00000  Uiso   1.00
H259   H     0.97564   0.57333   0.93004   0.00000  Uiso   1.00
H260   H     0.89835   0.48263   0.93420   0.00000  Uiso   1.00
H261   H     0.84462   0.51195   0.85565   0.00000  Uiso   1.00
H262   H     0.84777   0.47947   0.89461   0.00000  Uiso   1.00
C263   C     0.66913   0.49264   0.01972   0.00000  Uiso   1.00
C264   C     0.64727   0.50628   0.00136   0.00000  Uiso   1.00
C265   C     0.70250   0.51454   0.03519   0.00000  Uiso   1.00
C266   C     0.74992   0.51563   0.01171   0.00000  Uiso   1.00
C267   C     0.76348   0.50835   0.96146   0.00000  Uiso   1.00
C268   C     0.65972   0.45732   0.02135   0.00000  Uiso   1.00
C269   C     0.62930   0.43557   0.00323   0.00000  Uiso   1.00
C270   C     0.61657   0.48413   0.98220   0.00000  Uiso   1.00
H271   H     0.67606   0.44654   0.03611   0.00000  Uiso   1.00
H272   H     0.62215   0.40842   0.00483   0.00000  Uiso   1.00
H273   H     0.58430   0.43152   0.96972   0.00000  Uiso   1.00
H274   H     0.65412   0.53363   0.00090   0.00000  Uiso   1.00
H275   H     0.71195   0.51122   0.07752   0.00000  Uiso   1.00
C276   C     0.81066   0.51215   0.92640   0.00000  Uiso   1.00
C277   C     0.79797   0.51958   0.97782   0.00000  Uiso   1.00
H278   H     0.75971   0.54385   0.02922   0.00000  Uiso   1.00
H279   H     0.75307   0.48018   0.94350   0.00000  Uiso   1.00
H280   H     0.75784   0.52244   0.92873   0.00000  Uiso   1.00
H281   H     0.75534   0.50158   0.04476   0.00000  Uiso   1.00
H282   H     0.70655   0.54229   0.03713   0.00000  Uiso   1.00
H283   H     0.79936   0.48410   0.90775   0.00000  Uiso   1.00
H284   H     0.80565   0.52728   0.89486   0.00000  Uiso   1.00
N285   N     0.84353   0.52208   0.94270   0.00000  Uiso   1.00
N286   N     0.71699   0.50341   0.99242   0.00000  Uiso   1.00
C287   C     0.60793   0.44875   0.98303   0.00000  Uiso   1.00
C288   C     0.34046   0.86866   0.94996   0.00000  Uiso   1.00
C289   C     0.32508   0.88703   0.92298   0.00000  Uiso   1.00
C290   C     0.33778   0.92292   0.93263   0.00000  Uiso   1.00
C291   C     0.36586   0.94071   0.96884   0.00000  Uiso   1.00
C292   C     0.38208   0.92291  -0.00538   0.00000  Uiso   1.00
C293   C     0.36953   0.88665   0.98505   0.00000  Uiso   1.00
C294   C     0.32457   0.83032   0.94300   0.00000  Uiso   1.00
H295   H     0.30309   0.87356   0.89478   0.00000  Uiso   1.00
H296   H     0.32620   0.93710   0.91150   0.00000  Uiso   1.00
H297   H     0.37580   0.96858   0.97507   0.00000  Uiso   1.00
H298   H     0.38183   0.87253   0.00498   0.00000  Uiso   1.00
H299   H     0.31400   0.81920   0.89754   0.00000  Uiso   1.00
H300   H     0.34075   0.81819   0.95694   0.00000  Uiso   1.00
C301   C     0.15378   0.66499   0.05240   0.00000  Uiso   1.00
C302   C     0.12294   0.64862   0.02511   0.00000  Uiso   1.00
C303   C     0.17052   0.70307   0.05844   0.00000  Uiso   1.00
C304   C     0.21360   0.74353   0.03193   0.00000  Uiso   1.00
C305   C     0.23307   0.74760   0.98786   0.00000  Uiso   1.00
C306   C     0.17002   0.64507   0.07056   0.00000  Uiso   1.00
C307   C     0.15614   0.60923   0.06000   0.00000  Uiso   1.00
C308   C     0.10924   0.61243   1.01340   0.00000  Uiso   1.00
H309   H     0.19364   0.65732   0.09196   0.00000  Uiso   1.00
H310   H     0.16871   0.59392   0.07383   0.00000  Uiso   1.00
H311   H     0.11574   0.56506   0.02304   0.00000  Uiso   1.00
H312   H     0.11016   0.66372   1.01108   0.00000  Uiso   1.00
H313   H     0.18325   0.71390   0.10287   0.00000  Uiso   1.00
C314   C     0.27839   0.78914   0.95948   0.00000  Uiso   1.00
C315   C     0.25794   0.78358   0.00178   0.00000  Uiso   1.00
H316   H     0.20217   0.76221   0.03077   0.00000  Uiso   1.00
H317   H     0.24351   0.72799   0.98742   0.00000  Uiso   1.00
H318   H     0.21863   0.74358   0.94562   0.00000  Uiso   1.00
H319   H     0.22830   0.74872   0.07442   0.00000  Uiso   1.00
H320   H     0.15458   0.71613   0.04833   0.00000  Uiso   1.00
H321   H     0.28896   0.76964   0.95828   0.00000  Uiso   1.00
H322   H     0.26472   0.78668   0.91709   0.00000  Uiso   1.00
N323   N     0.30168   0.82389   0.97743   0.00000  Uiso   1.00
N324   N     0.19109   0.70825   0.01942   0.00000  Uiso   1.00
C325   C     0.12612   0.59300   0.03088   0.00000  Uiso   1.00
C326   C     0.49186   0.87346   0.90061   0.00000  Uiso   1.00
C327   C     0.46883   0.86326   0.85185   0.00000  Uiso   1.00
C328   C     0.45333   0.88458   0.83882   0.00000  Uiso   1.00
C329   C     0.46016   0.91584   0.87496   0.00000  Uiso   1.00
C330   C     0.48325   0.92664   0.92359   0.00000  Uiso   1.00
C331   C     0.49929   0.90552   0.93614   0.00000  Uiso   1.00
C332   C     0.50842   0.85017   0.91392   0.00000  Uiso   1.00
H333   H     0.46304   0.83883   0.82383   0.00000  Uiso   1.00
H334   H     0.43540   0.87641   0.80136   0.00000  Uiso   1.00
H335   H     0.44691   0.93125   0.86561   0.00000  Uiso   1.00
H336   H     0.51627   0.91307   0.97490   0.00000  Uiso   1.00
H337   H     0.51377   0.84022   0.87424   0.00000  Uiso   1.00
H338   H     0.53029   0.86498   0.94448   0.00000  Uiso   1.00
C339   C     0.52349   0.64898   0.04614   0.00000  Uiso   1.00
C340   C     0.50960   0.61298   0.02938   0.00000  Uiso   1.00
C341   C     0.50451   0.67071   0.04763   0.00000  Uiso   1.00
C342   C     0.49618   0.71853   0.01281   0.00000  Uiso   1.00
C343   C     0.50292   0.74078   0.96817   0.00000  Uiso   1.00
C344   C     0.55516   0.66458   0.06268   0.00000  Uiso   1.00
C345   C     0.57268   0.64433   0.06150   0.00000  Uiso   1.00
C346   C     0.52704   0.59240   0.02858   0.00000  Uiso   1.00
H347   H     0.56621   0.69220   0.07694   0.00000  Uiso   1.00
H348   H     0.59710   0.65660   0.07519   0.00000  Uiso   1.00
H349   H     0.57267   0.59308   0.04527   0.00000  Uiso   1.00
H350   H     0.48514   0.60066   1.01751   0.00000  Uiso   1.00
H351   H     0.50981   0.68561   0.09120   0.00000  Uiso   1.00
C352   C     0.50064   0.79305   0.93171   0.00000  Uiso   1.00
C353   C     0.49116   0.76997   0.97455   0.00000  Uiso   1.00
H354   H     0.47128   0.70438   0.00632   0.00000  Uiso   1.00
H355   H     0.52784   0.75212   0.97179   0.00000  Uiso   1.00
H356   H     0.49222   0.72417   0.92581   0.00000  Uiso   1.00
H357   H     0.50494   0.73526   0.05540   0.00000  Uiso   1.00
H358   H     0.47992   0.65393   0.03659   0.00000  Uiso   1.00
H359   H     0.52582   0.80314   0.93845   0.00000  Uiso   1.00
H360   H     0.49057   0.77735   0.88845   0.00000  Uiso   1.00
N361   N     0.49005   0.82160   0.93789   0.00000  Uiso   1.00
N362   N     0.51126   0.69402   0.00755   0.00000  Uiso   1.00
C363   C     0.55873   0.60841   0.04432   0.00000  Uiso   1.00
C364   C     0.47651   0.35522   0.94797   0.00000  Uiso   1.00
C365   C     0.44547   0.34598   0.92651   0.00000  Uiso   1.00
C366   C     0.43244   0.37057   0.93254   0.00000  Uiso   1.00
C367   C     0.45031   0.40459   0.95969   0.00000  Uiso   1.00
C368   C     0.48144   0.41426   0.98107   0.00000  Uiso   1.00
C369   C     0.49427   0.38923   0.97578   0.00000  Uiso   1.00
C370   C     0.49076   0.32922   0.93947   0.00000  Uiso   1.00
H371   H     0.43153   0.31998   0.90394   0.00000  Uiso   1.00
H372   H     0.40865   0.36355   0.91424   0.00000  Uiso   1.00
H373   H     0.44010   0.42364   0.96074   0.00000  Uiso   1.00
H374   H     0.51839   0.39662  -0.00898   0.00000  Uiso   1.00
H375   H     0.48364   0.31607   0.89446   0.00000  Uiso   1.00
H376   H     0.51591   0.34233   0.94985   0.00000  Uiso   1.00
C377   C     0.50490   0.12978   0.08789   0.00000  Uiso   1.00
C378   C     0.50061   0.09747   0.05692   0.00000  Uiso   1.00
C379   C     0.48488   0.14852   0.06994   0.00000  Uiso   1.00
C380   C     0.48866   0.20375   0.04767   0.00000  Uiso   1.00
C381   C     0.49908   0.22697   0.00583   0.00000  Uiso   1.00
C382   C     0.52912   0.14551   0.13471   0.00000  Uiso   1.00
C383   C     0.54907   0.12945   0.15008   0.00000  Uiso   1.00
C384   C     0.52106   0.08161   0.07189   0.00000  Uiso   1.00
H385   H     0.53276   0.17049   0.15856   0.00000  Uiso   1.00
H386   H     0.56795   0.14196   0.18561   0.00000  Uiso   1.00
H387   H     0.56180   0.08643   0.12953   0.00000  Uiso   1.00
H388   H     0.48277   0.08580   0.01914   0.00000  Uiso   1.00
H389   H     0.47761   0.15781   0.10768   0.00000  Uiso   1.00
C390   C     0.49464   0.27848   0.96843   0.00000  Uiso   1.00
C391   C     0.48617   0.25504   0.01055   0.00000  Uiso   1.00
H392   H     0.46342   0.19177   0.03727   0.00000  Uiso   1.00
H393   H     0.52426   0.23900   0.01501   0.00000  Uiso   1.00
H394   H     0.49078   0.21129   0.96238   0.00000  Uiso   1.00
H395   H     0.49644   0.21952   0.09108   0.00000  Uiso   1.00
H396   H     0.46417   0.13095   0.03843   0.00000  Uiso   1.00
H397   H     0.51978   0.29128   0.97637   0.00000  Uiso   1.00
H398   H     0.48569   0.26285   0.92494   0.00000  Uiso   1.00
N399   N     0.48113   0.30420   0.97577   0.00000  Uiso   1.00
N400   N     0.50162   0.17725   0.04477   0.00000  Uiso   1.00
C401   C     0.54526   0.09781   0.11862   0.00000  Uiso   1.00
loop_
_geom_bond_atom_site_label_1
_geom_bond_atom_site_label_2
_geom_bond_distance
_geom_bond_site_symmetry_2
_ccdc_geom_bond_type
Yb0    O3      2.075   .     S
Yb0    O4      2.140   .     S
Yb0    O7      2.085   .     S
Yb0    O5      2.203   1_556 S
Yb0    O8      2.122   1_556 S
Yb0    O12     2.156   1_556 S
Yb1    O9      2.200   .     S
Yb1    O10     2.197   .     S
Yb1    O14     2.155   .     S
Yb1    O6      2.201   1_554 S
Yb1    O13     2.100   1_554 S
Yb1    O16     2.188   1_554 S
C2     O14     1.259   .     A
C2     C178    1.478   .     S
C2     O16     1.266   1_554 A
O3     C11     1.281   .     A
O4     C11     1.298   .     A
O5     Yb0     2.203   1_554 S
O5     C15     1.284   1_554 A
O6     C15     1.296   .     A
O6     Yb1     2.201   1_556 S
O7     C17     1.295   .     A
O8     Yb0     2.122   1_554 S
O8     C17     1.296   1_554 A
O9     C18     1.259   .     A
O10    C18     1.258   .     A
C11    C80     1.467   .     S
O12    C19     1.262   .     A
O12    Yb0     2.156   1_554 S
O13    Yb1     2.100   1_556 S
O13    C19     1.255   1_556 A
C15    O5      1.284   1_556 A
C15    C346    1.479   1_556 S
O16    Yb1     2.188   1_556 S
O16    C2      1.266   1_556 A
C17    C270    1.477   .     S
C17    O8      1.296   1_556 A
C18    C64     1.461   .     S
C19    O13     1.255   1_554 A
C19    C368    1.470   1_554 S
Yb20   O23     2.083   .     S
Yb20   O27     2.093   .     S
Yb20   O24     2.175   1_455 S
Yb20   O25     2.141   1_455 S
Yb20   O28     2.133   1_556 S
Yb20   O32     2.119   1_556 S
Yb21   O29     2.086   .     S
Yb21   O34     2.125   .     S
Yb21   O26     2.205   1_554 S
Yb21   O30     2.126   1_655 S
Yb21   O33     2.184   1_655 S
Yb21   O36     2.087   1_554 S
C22    O34     1.292   .     A
C22    C216    1.472   .     S
C22    O36     1.285   1_554 A
O23    C31     1.271   1_455 A
O24    C31     1.295   .     A
O24    Yb20    2.175   1_655 S
O25    C35     1.270   .     A
O25    Yb20    2.141   1_655 S
O26    C35     1.289   .     A
O26    Yb21    2.205   1_556 S
O27    C37     1.282   .     A
O28    Yb20    2.133   1_554 S
O28    C37     1.291   1_554 A
O29    C38     1.284   1_655 A
O30    C38     1.292   .     A
O30    Yb21    2.126   1_455 S
C31    C102    1.484   .     S
C31    O23     1.271   1_655 A
O32    C39     1.269   .     A
O32    Yb20    2.119   1_554 S
O33    C39     1.269   .     A
O33    Yb21    2.184   1_455 S
C35    C254    1.487   .     S
O36    Yb21    2.087   1_556 S
O36    C22     1.285   1_556 A
C37    C308    1.470   .     S
C37    O28     1.291   1_556 A
C38    C118    1.474   .     S
C38    O29     1.284   1_455 A
C39    C194    1.496   .     S
Yb40   O43     2.160   .     S
Yb40   O47     2.159   .     S
Yb40   O44     2.155   1_565 S
Yb40   O45     2.137   1_565 S
Yb40   O48     2.158   1_554 S
Yb40   O52     2.239   1_554 S
Yb41   O49     2.138   .     S
Yb41   O54     2.190   .     S
Yb41   O46     2.219   1_556 S
Yb41   O50     2.136   1_545 S
Yb41   O53     2.167   1_545 S
Yb41   O56     2.143   1_556 S
C42    O54     1.266   .     A
C42    C232    1.469   .     S
C42    O56     1.266   1_556 A
O43    C51     1.274   1_565 A
O44    C51     1.273   .     A
O44    Yb40    2.155   1_545 S
O45    C55     1.265   .     A
O45    Yb40    2.137   1_545 S
O46    C55     1.291   .     A
O46    Yb41    2.219   1_554 S
O47    C57     1.268   .     A
O48    Yb40    2.158   1_556 S
O48    C57     1.279   1_556 A
O49    C58     1.274   1_545 A
O50    C58     1.280   .     A
O50    Yb41    2.136   1_565 S
C51    C140    1.475   .     S
C51    O43     1.274   1_545 A
O52    C59     1.293   .     A
O52    Yb40    2.239   1_556 S
O53    C59     1.269   .     A
O53    Yb41    2.167   1_565 S
C55    C384    1.465   .     S
O56    Yb41    2.143   1_554 S
O56    C42     1.266   1_554 A
C57    C292    1.462   .     S
C57    O48     1.279   1_554 A
C58    C156    1.481   .     S
C58    O49     1.274   1_565 A
C59    C330    1.465   .     S
C60    C61     1.405   .     A
C60    C65     1.407   .     A
C60    C66     1.500   .     S
C61    C62     1.395   .     A
C61    H67     1.081   .     S
C62    C63     1.394   .     A
C62    H68     1.080   .     S
C63    C64     1.401   .     A
C63    H69     1.084   .     S
C64    C65     1.400   .     A
C65    H70     1.084   .     S
C66    H71     1.114   .     S
C66    H72     1.113   .     S
C66    N95     1.465   .     S
C73    C74     1.408   .     A
C73    C75     1.502   .     S
C73    C78     1.404   .     A
C74    C80     1.403   .     A
C74    H84     1.083   .     S
C75    H85     1.114   .     S
C75    H92     1.112   .     S
C75    N96     1.460   .     S
C76    C77     1.523   .     S
C76    H88     1.114   .     S
C76    H91     1.113   .     S
C76    N96     1.464   .     S
C77    C87     1.528   .     S
C77    H89     1.112   .     S
C77    H90     1.112   .     S
C78    C79     1.395   .     A
C78    H81     1.083   .     S
C79    H82     1.083   .     S
C79    C97     1.396   .     A
C80    C97     1.405   .     A
H83    C97     1.084   .     S
C86    C87     1.525   .     S
C86    H93     1.114   .     S
C86    H94     1.113   .     S
C86    N95     1.464   .     S
C98    C103    1.415   .     A
C98    C104    1.499   .     S
C98    C99     1.403   1_655 A
C99    C100    1.388   .     A
C99    H105    1.082   .     S
C99    C98     1.403   1_455 A
C100   C101    1.390   .     A
C100   H106    1.084   .     S
C101   H107    1.084   .     S
C101   C102    1.414   1_455 A
C102   C103    1.405   .     A
C102   C101    1.414   1_655 A
C103   H108    1.082   .     S
C104   H109    1.116   .     S
C104   H110    1.110   .     S
C104   N133    1.467   1_655 S
C111   C112    1.411   .     A
C111   C113    1.502   .     S
C111   C116    1.404   1_455 A
C112   C118    1.406   .     A
C112   H122    1.083   .     S
C113   H123    1.114   .     S
C113   H130    1.111   .     S
C113   N134    1.465   .     S
C114   C115    1.524   .     S
C114   H126    1.113   .     S
C114   H129    1.113   .     S
C114   N134    1.464   .     S
C115   C125    1.527   .     S
C115   H127    1.112   1_455 S
C115   H128    1.112   1_455 S
C116   C117    1.392   .     A
C116   H119    1.084   .     S
C116   C111    1.404   1_655 A
C117   H120    1.083   .     S
C117   C135    1.392   .     A
C118   C135    1.407   1_455 A
H121   C135    1.084   .     S
C124   H131    1.114   .     S
C124   H132    1.113   .     S
C124   C125    1.524   1_655 S
C124   N133    1.463   1_655 S
C125   C124    1.524   1_455 S
H127   C115    1.112   1_655 S
H128   C115    1.112   1_655 S
N133   C104    1.467   1_455 S
N133   C124    1.463   1_455 S
C135   C118    1.407   1_655 A
C136   C137    1.400   .     A
C136   C141    1.401   .     A
C136   C142    1.503   .     S
C137   C138    1.399   .     A
C137   H143    1.085   .     S
C138   H144    1.081   .     S
C138   C139    1.401   1_565 A
C139   C140    1.404   .     A
C139   H145    1.077   .     S
C139   C138    1.401   1_545 A
C140   C141    1.401   1_545 A
C141   H146    1.083   .     S
C141   C140    1.401   1_565 A
C142   H147    1.114   .     S
C142   H148    1.116   .     S
C142   N171    1.465   .     S
C149   C150    1.408   .     A
C149   C151    1.503   .     S
C149   C154    1.402   .     A
C150   H160    1.085   .     S
C150   C156    1.411   1_545 A
C151   H161    1.115   .     S
C151   H168    1.112   .     S
C151   N172    1.464   .     S
C152   H164    1.112   .     S
C152   H167    1.114   .     S
C152   N172    1.463   .     S
C152   C153    1.525   1_545 S
C153   H165    1.112   .     S
C153   H166    1.112   .     S
C153   C152    1.525   1_565 S
C153   C163    1.526   1_565 S
C154   C155    1.392   .     A
C154   H157    1.082   .     S
C155   H158    1.080   .     S
C155   C173    1.395   1_545 A
C156   C173    1.405   .     A
C156   C150    1.411   1_565 A
H159   C173    1.081   .     S
C162   H169    1.112   .     S
C162   H170    1.113   .     S
C162   N171    1.462   .     S
C162   C163    1.525   1_565 S
C163   C153    1.526   1_545 S
C163   C162    1.525   1_545 S
C173   C155    1.395   1_565 A
C174   C175    1.403   .     A
C174   C179    1.405   .     A
C174   C180    1.503   .     S
C175   C176    1.398   .     A
C175   H181    1.088   .     S
C176   C177    1.397   .     A
C176   H182    1.079   .     S
C177   C178    1.404   .     A
C177   H183    1.081   .     S
C178   C179    1.407   .     A
C179   H184    1.084   .     S
C180   H185    1.114   .     S
C180   H186    1.112   .     S
C180   N209    1.464   .     S
C187   C189    1.496   .     S
C187   C192    1.402   .     A
C187   C188    1.415   1_556 A
C188   C194    1.408   .     A
C188   H198    1.083   .     S
C188   C187    1.415   1_554 A
C189   H199    1.115   .     S
C189   H206    1.110   .     S
C189   N210    1.464   1_556 S
C190   C191    1.524   .     S
C190   H202    1.113   .     S
C190   N210    1.462   .     S
C190   H205    1.114   1_554 S
C191   C201    1.525   .     S
C191   H203    1.113   .     S
C191   H204    1.112   .     S
C192   C193    1.383   .     A
C192   H195    1.083   .     S
C193   H196    1.084   .     S
C193   C211    1.387   .     A
C194   C211    1.409   1_554 A
H197   C211    1.060   .     S
C200   C201    1.521   .     S
C200   H207    1.113   .     S
C200   H208    1.112   .     S
C200   N209    1.461   .     S
H205   C190    1.114   1_556 S
N210   C189    1.464   1_554 S
C211   C194    1.409   1_556 A
C212   C213    1.405   .     A
C212   C217    1.411   .     A
C212   C218    1.502   .     S
C213   C214    1.393   .     A
C213   H219    1.084   .     S
C214   C215    1.393   .     A
C214   H220    1.083   .     S
C215   C216    1.406   .     A
C215   H221    1.084   .     S
C216   C217    1.404   .     A
C217   H222    1.082   .     S
C218   H223    1.114   .     S
C218   H224    1.112   .     S
C218   N247    1.466   .     S
C225   C226    1.408   .     A
C225   C227    1.502   .     S
C225   C230    1.405   .     A
C226   C232    1.404   .     A
C226   H236    1.085   .     S
C227   H237    1.114   .     S
C227   H244    1.113   .     S
C227   N248    1.464   .     S
C228   H240    1.113   .     S
C228   H243    1.113   .     S
C228   N248    1.463   .     S
C228   C229    1.527   1_556 S
C229   C239    1.528   .     S
C229   H241    1.112   .     S
C229   H242    1.112   .     S
C229   C228    1.527   1_554 S
C230   C231    1.393   .     A
C230   H233    1.081   .     S
C231   H234    1.080   .     S
C231   C249    1.391   .     A
C232   C249    1.404   .     A
H235   C249    1.083   .     S
C238   C239    1.527   .     S
C238   H245    1.113   .     S
C238   H246    1.113   .     S
C238   N247    1.463   .     S
C250   C251    1.404   .     A
C250   C255    1.416   .     A
C250   C256    1.504   .     S
C251   C252    1.391   .     A
C251   H257    1.083   .     S
C252   C253    1.392   .     A
C252   H258    1.083   .     S
C253   C254    1.412   .     A
C253   H259    1.085   .     S
C254   C255    1.409   .     A
C255   H260    1.083   .     S
C256   H261    1.115   .     S
C256   H262    1.111   .     S
C256   N285    1.469   .     S
C263   C264    1.414   .     A
C263   C265    1.505   .     S
C263   C268    1.404   .     A
C264   H274    1.085   .     S
C264   C270    1.409   1_554 A
C265   H275    1.113   .     S
C265   H282    1.111   .     S
C265   N286    1.465   1_554 S
C266   H278    1.113   .     S
C266   H281    1.113   .     S
C266   C267    1.529   1_554 S
C266   N286    1.465   1_554 S
C267   C277    1.532   .     S
C267   H279    1.113   .     S
C267   H280    1.112   .     S
C267   C266    1.529   1_556 S
C268   C269    1.393   .     A
C268   H271    1.081   .     S
C269   H272    1.081   .     S
C269   C287    1.393   1_554 A
C270   C287    1.405   .     A
C270   C264    1.409   1_556 A
H273   C287    1.084   .     S
C276   C277    1.529   .     S
C276   H283    1.113   .     S
C276   H284    1.112   .     S
C276   N285    1.465   .     S
N286   C265    1.465   1_556 S
N286   C266    1.465   1_556 S
C287   C269    1.393   1_556 A
C288   C289    1.406   .     A
C288   C293    1.413   .     A
C288   C294    1.499   .     S
C289   C290    1.391   .     A
C289   H295    1.085   .     S
C290   C291    1.389   .     A
C290   H296    1.079   .     S
C291   H297    1.082   .     S
C291   C292    1.401   1_556 A
C292   C291    1.401   1_554 A
C292   C293    1.405   1_554 A
C293   C292    1.405   1_556 A
C293   H298    1.087   1_556 S
C294   H299    1.116   .     S
C294   H300    1.112   .     S
C294   N323    1.463   .     S
H298   C293    1.087   1_554 S
C301   C302    1.411   .     A
C301   C303    1.497   .     S
C301   C306    1.405   .     A
C302   C308    1.403   1_554 A
C302   H312    1.084   1_554 S
C303   H313    1.114   .     S
C303   H320    1.111   .     S
C303   N324    1.463   .     S
C304   H316    1.113   .     S
C304   H319    1.113   .     S
C304   N324    1.459   .     S
C304   C305    1.524   1_554 S
C305   H317    1.112   .     S
C305   H318    1.112   .     S
C305   C304    1.524   1_556 S
C305   C315    1.522   1_556 S
C306   C307    1.391   .     A
C306   H309    1.084   .     S
C307   H310    1.082   .     S
C307   C325    1.391   .     A
C308   C302    1.403   1_556 A
C308   C325    1.406   1_556 A
H311   C325    1.084   .     S
H312   C302    1.084   1_556 S
C314   H321    1.113   .     S
C314   H322    1.113   .     S
C314   N323    1.458   .     S
C314   C315    1.522   1_556 S
C315   C305    1.522   1_554 S
C315   C314    1.522   1_554 S
C325   C308    1.406   1_554 A
C326   C327    1.404   .     A
C326   C331    1.409   .     A
C326   C332    1.508   .     S
C327   C328    1.396   .     A
C327   H333    1.084   .     S
C328   C329    1.395   .     A
C328   H334    1.084   .     S
C329   C330    1.402   .     A
C329   H335    1.083   .     S
C330   C331    1.406   .     A
C331   H336    1.084   .     S
C332   H337    1.114   .     S
C332   H338    1.113   .     S
C332   N361    1.471   .     S
C339   C340    1.402   .     A
C339   C341    1.512   .     S
C339   C344    1.402   .     A
C340   C346    1.410   .     A
C340   H350    1.083   1_554 S
C341   H351    1.111   .     S
C341   H358    1.115   .     S
C341   N362    1.466   .     S
C342   H354    1.112   .     S
C342   H357    1.111   .     S
C342   N362    1.467   .     S
C342   C343    1.527   1_554 S
C343   C353    1.531   .     S
C343   H355    1.111   .     S
C343   H356    1.110   .     S
C343   C342    1.527   1_556 S
C344   C345    1.402   .     A
C344   H347    1.080   .     S
C345   H348    1.083   .     S
C345   C363    1.400   .     A
C346   C363    1.403   .     A
C346   C15     1.479   1_554 S
H349   C363    1.087   .     S
H350   C340    1.083   1_556 S
C352   C353    1.531   .     S
C352   H359    1.114   .     S
C352   H360    1.112   .     S
C352   N361    1.468   .     S
C364   C365    1.403   .     A
C364   C369    1.402   .     A
C364   C370    1.499   .     S
C365   C366    1.397   .     A
C365   H371    1.083   .     S
C366   C367    1.399   .     A
C366   H372    1.085   .     S
C367   C368    1.404   .     A
C367   H373    1.083   .     S
C368   C369    1.405   .     A
C368   C19     1.470   1_556 S
C369   H374    1.084   1_556 S
C370   H375    1.113   .     S
C370   H376    1.114   .     S
C370   N399    1.461   .     S
H374   C369    1.084   1_554 S
C377   C378    1.405   .     A
C377   C379    1.501   .     S
C377   C382    1.404   .     A
C378   C384    1.407   .     A
C378   H388    1.087   .     S
C379   H389    1.114   .     S
C379   H396    1.113   .     S
C379   N400    1.465   .     S
C380   C381    1.523   .     S
C380   H392    1.114   .     S
C380   H395    1.113   .     S
C380   N400    1.464   .     S
C381   C391    1.524   .     S
C381   H393    1.112   .     S
C381   H394    1.112   1_554 S
C382   C383    1.395   .     A
C382   H385    1.082   .     S
C383   H386    1.080   .     S
C383   C401    1.393   .     A
C384   C401    1.403   .     A
H387   C401    1.086   .     S
C390   H397    1.114   .     S
C390   H398    1.113   .     S
C390   N399    1.460   .     S
C390   C391    1.519   1_556 S
C391   C390    1.519   1_554 S
H394   C381    1.112   1_556 S
