data_lcy+N205+E225
_audit_creation_date              2025-01-21
_audit_creation_method            'Materials Studio'
_symmetry_space_group_name_H-M    'P1'
_symmetry_Int_Tables_number       1
_symmetry_cell_setting            triclinic
loop_
_symmetry_equiv_pos_as_xyz
  x,y,z
_cell_length_a                    33.7582
_cell_length_b                    32.1770
_cell_length_c                    35.1147
_cell_angle_alpha                 110.7170
_cell_angle_beta                  93.3889
_cell_angle_gamma                 93.6992
loop_
_atom_site_label
_atom_site_type_symbol
_atom_site_fract_x
_atom_site_fract_y
_atom_site_fract_z
_atom_site_U_iso_or_equiv
_atom_site_adp_type
_atom_site_occupancy
Y0     Y     0.16860   0.57798   0.88505   0.00000  Uiso   1.00
Y1     Y     0.07634   0.67145   0.84880   0.00000  Uiso   1.00
C2     C     0.01580   0.67797   0.89703   0.00000  Uiso   1.00
C3     C     0.08699   0.57114   0.83627   0.00000  Uiso   1.00
C4     C     0.18767   0.54982   0.94698   0.00000  Uiso   1.00
C5     C     0.22014   0.56499   0.82693   0.00000  Uiso   1.00
C6     C     0.15428   0.67850   0.90302   0.00000  Uiso   1.00
C7     C     0.06714   0.70771   0.79065   0.00000  Uiso   1.00
O8     O     0.04526   0.70673   0.90500   0.00000  Uiso   1.00
O9     O     0.01754   0.64594   0.86385   0.00000  Uiso   1.00
O10    O     0.10742   0.55023   0.85408   0.00000  Uiso   1.00
O11    O     0.10338   0.60563   0.83169   0.00000  Uiso   1.00
O12    O     0.19581   0.58927   0.94868   0.00000  Uiso   1.00
O13    O     0.16967   0.52508   0.91329   0.00000  Uiso   1.00
O14    O     0.19245   0.53666   0.82663   0.00000  Uiso   1.00
O15    O     0.22174   0.60044   0.85804   0.00000  Uiso   1.00
O16    O     0.13470   0.70145   0.88689   0.00000  Uiso   1.00
O17    O     0.13803   0.64124   0.90139   0.00000  Uiso   1.00
O18    O     0.05427   0.66816   0.78541   0.00000  Uiso   1.00
O19    O     0.08493   0.72788   0.82558   0.00000  Uiso   1.00
Y20    Y     0.58917   0.84521   0.15722   0.00000  Uiso   1.00
Y21    Y     0.63647   0.88952   0.07617   0.00000  Uiso   1.00
C22    C     0.68217   0.82030   0.05921   0.00000  Uiso   1.00
C23    C     0.66183   0.90942   0.16560   0.00000  Uiso   1.00
C24    C     0.58678   0.78334   0.19307   0.00000  Uiso   1.00
C25    C     0.55544   0.92132   0.19562   0.00000  Uiso   1.00
C26    C     0.55361   0.83800   0.07131   0.00000  Uiso   1.00
C27    C     0.64951   0.93665   0.02715   0.00000  Uiso   1.00
O28    O     0.64506   0.81567   0.05010   0.00000  Uiso   1.00
O29    O     0.69511   0.86038   0.07802   0.00000  Uiso   1.00
O30    O     0.65252   0.86770   0.15394   0.00000  Uiso   1.00
O31    O     0.65166   0.92999   0.14228   0.00000  Uiso   1.00
O32    O     0.55628   0.79377   0.17728   0.00000  Uiso   1.00
O33    O     0.61814   0.80503   0.19036   0.00000  Uiso   1.00
O34    O     0.58842   0.91222   0.20783   0.00000  Uiso   1.00
O35    O     0.53922   0.89032   0.16438   0.00000  Uiso   1.00
O36    O     0.57026   0.87635   0.07599   0.00000  Uiso   1.00
O37    O     0.56815   0.81446   0.09030   0.00000  Uiso   1.00
O38    O     0.66110   0.95039   0.06455   0.00000  Uiso   1.00
O39    O     0.63007   0.89888   0.01519   0.00000  Uiso   1.00
Y40    Y     0.90510   0.15281   0.57811   0.00000  Uiso   1.00
Y41    Y     0.85627   0.07762   0.66896   0.00000  Uiso   1.00
C42    C     0.91773   0.02746   0.66877   0.00000  Uiso   1.00
C43    C     0.84593   0.07319   0.57503   0.00000  Uiso   1.00
C44    C     0.97865   0.16592   0.55675   0.00000  Uiso   1.00
C45    C     0.84804   0.20327   0.56775   0.00000  Uiso   1.00
C46    C     0.89464   0.16645   0.66957   0.00000  Uiso   1.00
C47    C     0.80002   0.06389   0.71619   0.00000  Uiso   1.00
O48    O     0.91913   0.06860   0.68915   0.00000  Uiso   1.00
O49    O     0.88528   0.01289   0.64709   0.00000  Uiso   1.00
O50    O     0.88300   0.08547   0.57871   0.00000  Uiso   1.00
O51    O     0.82934   0.06844   0.60529   0.00000  Uiso   1.00
O52    O     0.96649   0.18799   0.59082   0.00000  Uiso   1.00
O53    O     0.95244   0.13654   0.53333   0.00000  Uiso   1.00
O54    O     0.85443   0.16654   0.54091   0.00000  Uiso   1.00
O55    O     0.87212   0.21445   0.59950   0.00000  Uiso   1.00
O56    O     0.87475   0.15173   0.69224   0.00000  Uiso   1.00
O57    O     0.90188   0.13867   0.63556   0.00000  Uiso   1.00
O58    O     0.79982   0.04213   0.67855   0.00000  Uiso   1.00
O59    O     0.82891   0.09343   0.72925   0.00000  Uiso   1.00
Y60    Y     0.40790   0.35013   0.42631   0.00000  Uiso   1.00
Y61    Y     0.35987   0.42932   0.34028   0.00000  Uiso   1.00
C62    C     0.42602   0.48462   0.34789   0.00000  Uiso   1.00
C63    C     0.36068   0.42909   0.43122   0.00000  Uiso   1.00
C64    C     0.47761   0.32929   0.45223   0.00000  Uiso   1.00
C65    C     0.34095   0.30462   0.43308   0.00000  Uiso   1.00
C66    C     0.39032   0.33946   0.33558   0.00000  Uiso   1.00
C67    C     0.30249   0.44675   0.29235   0.00000  Uiso   1.00
O68    O     0.40078   0.49152   0.37384   0.00000  Uiso   1.00
O69    O     0.41858   0.44740   0.31927   0.00000  Uiso   1.00
O70    O     0.39594   0.41789   0.42626   0.00000  Uiso   1.00
O71    O     0.33931   0.43344   0.40175   0.00000  Uiso   1.00
O72    O     0.45969   0.30885   0.41728   0.00000  Uiso   1.00
O73    O     0.45984   0.36196   0.47387   0.00000  Uiso   1.00
O74    O     0.35617   0.34036   0.46087   0.00000  Uiso   1.00
O75    O     0.36108   0.29201   0.40252   0.00000  Uiso   1.00
O76    O     0.36857   0.35586   0.31483   0.00000  Uiso   1.00
O77    O     0.40739   0.36561   0.36921   0.00000  Uiso   1.00
O78    O     0.30883   0.46792   0.33023   0.00000  Uiso   1.00
O79    O     0.32455   0.41554   0.27990   0.00000  Uiso   1.00
C80    C     0.51648   0.82119   0.04386   0.00000  Uiso   1.00
C81    C     0.49263   0.78398   0.04442   0.00000  Uiso   1.00
C82    C     0.45692   0.76921   0.01941   0.00000  Uiso   1.00
C83    C     0.44443   0.79145  -0.00663   0.00000  Uiso   1.00
C84    C     0.46884   0.82746  -0.00829   0.00000  Uiso   1.00
C85    C     0.50429   0.84264   0.01706   0.00000  Uiso   1.00
C86    C     0.37541   0.77002  -0.01286   0.00000  Uiso   1.00
H87    H     0.21221   0.72568   0.87976   0.00000  Uiso   1.00
H88    H     0.27810   0.75578   0.91525   0.00000  Uiso   1.00
H89    H     0.25311   0.69869   0.00644   0.00000  Uiso   1.00
H90    H     0.18627   0.67077   0.97193   0.00000  Uiso   1.00
H91    H     0.33947   0.74118   0.93218   0.00000  Uiso   1.00
O92    O     0.30812   0.74501   0.98580   0.00000  Uiso   1.00
O93    O     0.40889   0.77733   0.96771   0.00000  Uiso   1.00
C94    C     0.19498   0.69442   0.92236   0.00000  Uiso   1.00
C95    C     0.22122   0.71900   0.90701   0.00000  Uiso   1.00
C96    C     0.25919   0.73557   0.92702   0.00000  Uiso   1.00
C97    C     0.27149   0.72738   0.96270   0.00000  Uiso   1.00
C98    C     0.24471   0.70380   0.97827   0.00000  Uiso   1.00
C99    C     0.20689   0.68744   0.95836   0.00000  Uiso   1.00
C100   C     0.34092   0.75179   0.96528   0.00000  Uiso   1.00
H101   H     0.43907   0.74039   0.02023   0.00000  Uiso   1.00
H102   H     0.45989   0.84435   0.97128   0.00000  Uiso   1.00
H103   H     0.50133   0.76655   0.06446   0.00000  Uiso   1.00
H104   H     0.37677   0.77981   0.02025   0.00000  Uiso   1.00
H105   H     0.52221   0.87111   0.01558   0.00000  Uiso   1.00
C106   C     0.39531   0.29143   0.32094   0.00000  Uiso   1.00
C107   C     0.43237   0.27759   0.32887   0.00000  Uiso   1.00
C108   C     0.43853   0.23250   0.31497   0.00000  Uiso   1.00
C109   C     0.40826   0.20015   0.29061   0.00000  Uiso   1.00
C110   C     0.37108   0.21407   0.28282   0.00000  Uiso   1.00
C111   C     0.36469   0.25943   0.29756   0.00000  Uiso   1.00
C112   C     0.45244   0.14339   0.26630   0.00000  Uiso   1.00
H113   H     0.48414   0.94628   0.17458   0.00000  Uiso   1.00
H114   H     0.46124   0.02116   0.19988   0.00000  Uiso   1.00
H115   H     0.56751   0.06903   0.28252   0.00000  Uiso   1.00
H116   H     0.59072   0.99419   0.25739   0.00000  Uiso   1.00
H117   H     0.44098   0.07685   0.26167   0.00000  Uiso   1.00
O118   O     0.50308   0.09480   0.25586   0.00000  Uiso   1.00
O119   O     0.41348   0.15423   0.27507   0.00000  Uiso   1.00
C120   C     0.53901   0.96451   0.21434   0.00000  Uiso   1.00
C121   C     0.50206   0.97253   0.19896   0.00000  Uiso   1.00
C122   C     0.48880   0.01520   0.21364   0.00000  Uiso   1.00
C123   C     0.51232   0.05039   0.24408   0.00000  Uiso   1.00
C124   C     0.54879   0.04203   0.25972   0.00000  Uiso   1.00
C125   C     0.56192   0.99941   0.24537   0.00000  Uiso   1.00
C126   C     0.46291   0.10252   0.26043   0.00000  Uiso   1.00
H127   H     0.46710   0.22322   0.32325   0.00000  Uiso   1.00
H128   H     0.34722   0.18969   0.26483   0.00000  Uiso   1.00
H129   H     0.45697   0.30188   0.34509   0.00000  Uiso   1.00
H130   H     0.47498   0.16808   0.26427   0.00000  Uiso   1.00
H131   H     0.33587   0.26947   0.29084   0.00000  Uiso   1.00
C132   C     0.81493   0.22942   0.56326   0.00000  Uiso   1.00
C133   C     0.78923   0.21459   0.52722   0.00000  Uiso   1.00
C134   C     0.75617   0.23743   0.52386   0.00000  Uiso   1.00
C135   C     0.74781   0.27522   0.55685   0.00000  Uiso   1.00
C136   C     0.77440   0.29102   0.59209   0.00000  Uiso   1.00
C137   C     0.80751   0.26816   0.59548   0.00000  Uiso   1.00
C138   C     0.67915   0.27219   0.53613   0.00000  Uiso   1.00
H139   H     0.52439   0.36867   0.52482   0.00000  Uiso   1.00
H140   H     0.58302   0.33984   0.54818   0.00000  Uiso   1.00
H141   H     0.57146   0.22694   0.43509   0.00000  Uiso   1.00
H142   H     0.51325   0.25540   0.41138   0.00000  Uiso   1.00
H143   H     0.64995   0.32587   0.53143   0.00000  Uiso   1.00
O144   O     0.61381   0.26204   0.50521   0.00000  Uiso   1.00
O145   O     0.71457   0.29882   0.55489   0.00000  Uiso   1.00
C146   C     0.51451   0.31455   0.46612   0.00000  Uiso   1.00
C147   C     0.53484   0.33815   0.50468   0.00000  Uiso   1.00
C148   C     0.56851   0.32189   0.51789   0.00000  Uiso   1.00
C149   C     0.58227   0.28179   0.49256   0.00000  Uiso   1.00
C150   C     0.56167   0.25826   0.45447   0.00000  Uiso   1.00
C151   C     0.52848   0.27461   0.44110   0.00000  Uiso   1.00
C152   C     0.64780   0.29029   0.52574   0.00000  Uiso   1.00
H153   H     0.73715   0.22553   0.49553   0.00000  Uiso   1.00
H154   H     0.76881   0.32050   0.61738   0.00000  Uiso   1.00
H155   H     0.79450   0.18505   0.50182   0.00000  Uiso   1.00
H156   H     0.67660   0.23642   0.52975   0.00000  Uiso   1.00
H157   H     0.82689   0.28031   0.62360   0.00000  Uiso   1.00
C158   C     0.77033   0.05506   0.74219   0.00000  Uiso   1.00
C159   C     0.77039   0.08343   0.78309   0.00000  Uiso   1.00
C160   C     0.74400   0.07349   0.80850   0.00000  Uiso   1.00
C161   C     0.71768   0.03429   0.79366   0.00000  Uiso   1.00
C162   C     0.71632   1.00728   0.75231   0.00000  Uiso   1.00
C163   C     0.74256   1.01735   0.72677   0.00000  Uiso   1.00
C164   C     0.70866   0.02869   0.85838   0.00000  Uiso   1.00
H165   H     0.63317   0.90947   0.94427   0.00000  Uiso   1.00
H166   H     0.65730   0.94637   0.89914   0.00000  Uiso   1.00
H167   H     0.71354   0.05568   1.00347   0.00000  Uiso   1.00
H168   H     0.69004   1.01828   0.04885   0.00000  Uiso   1.00
H169   H     0.65631   1.00417   0.87556   0.00000  Uiso   1.00
O170   O     0.70486   1.02591   0.92406   0.00000  Uiso   1.00
O171   O     0.69212   1.02163   0.81867   0.00000  Uiso   1.00
C172   C     0.65956   0.96117   0.00003   0.00000  Uiso   1.00
C173   C     0.64990   0.94187   0.95764   0.00000  Uiso   1.00
C174   C     0.66347   0.96330   0.93177   0.00000  Uiso   1.00
C175   C     0.68648   1.00486   0.94819   0.00000  Uiso   1.00
C176   C     0.69531   1.02421   0.99051   0.00000  Uiso   1.00
C177   C     0.68189   1.00283   0.01630   0.00000  Uiso   1.00
C178   C     0.68714   1.01785   0.88467   0.00000  Uiso   1.00
H179   H     0.74435   0.09626   0.83975   0.00000  Uiso   1.00
H180   H     0.69565   0.97759   0.74021   0.00000  Uiso   1.00
H181   H     0.79104   0.11314   0.79551   0.00000  Uiso   1.00
H182   H     0.73972   0.04116   0.86805   0.00000  Uiso   1.00
H183   H     0.74172   0.99514   0.69521   0.00000  Uiso   1.00
C184   C     0.82140   0.06358   0.53592   0.00000  Uiso   1.00
C185   C     0.83788   0.06889   0.50189   0.00000  Uiso   1.00
C186   C     0.81474   0.05770   0.46462   0.00000  Uiso   1.00
C187   C     0.77500   0.03871   0.46006   0.00000  Uiso   1.00
C188   C     0.75874   1.03379   0.49412   0.00000  Uiso   1.00
C189   C     0.78143   0.04604   0.53154   0.00000  Uiso   1.00
C190   C     0.76635   1.01696   0.38617   0.00000  Uiso   1.00
H191   H     0.66852   0.88399   0.23189   0.00000  Uiso   1.00
H192   H     0.70985   0.92206   0.29633   0.00000  Uiso   1.00
H193   H     0.74972   0.02574   0.25296   0.00000  Uiso   1.00
H194   H     0.70773   0.98859   0.18856   0.00000  Uiso   1.00
H195   H     0.71021   1.00051   0.35320   0.00000  Uiso   1.00
O196   O     0.75863   0.99771   0.31446   0.00000  Uiso   1.00
O197   O     0.74965   1.02574   0.42363   0.00000  Uiso   1.00
C198   C     0.68485   0.93345   0.20532   0.00000  Uiso   1.00
C199   C     0.68567   0.91523   0.23629   0.00000  Uiso   1.00
C200   C     0.70893   0.93708   0.27319   0.00000  Uiso   1.00
C201   C     0.73205   0.97729   0.27953   0.00000  Uiso   1.00
C202   C     0.73143   0.99524   0.24861   0.00000  Uiso   1.00
C203   C     0.70752   0.97399   0.21204   0.00000  Uiso   1.00
C204   C     0.74231   1.00431   0.35174   0.00000  Uiso   1.00
H205   H     0.82825   0.06464   0.44012   0.00000  Uiso   1.00
H206   H     0.72823   1.01975   0.49149   0.00000  Uiso   1.00
H207   H     0.86864   0.08189   0.50402   0.00000  Uiso   1.00
H208   H     0.79823   0.01890   0.38383   0.00000  Uiso   1.00
H209   H     0.76767   1.04081   0.55681   0.00000  Uiso   1.00
C210   C     0.34442   0.43738   0.47097   0.00000  Uiso   1.00
C211   C     0.36964   0.45687   0.50716   0.00000  Uiso   1.00
C212   C     0.35393   0.47128   0.54515   0.00000  Uiso   1.00
C213   C     0.31251   0.46498   0.54778   0.00000  Uiso   1.00
C214   C     0.28777   0.44391   0.51155   0.00000  Uiso   1.00
C215   C     0.30338   0.43062   0.47351   0.00000  Uiso   1.00
C216   C     0.31608   0.49827   0.62237   0.00000  Uiso   1.00
H217   H     0.21419   0.49393   0.75600   0.00000  Uiso   1.00
H218   H     0.25576   0.48025   0.69939   0.00000  Uiso   1.00
H219   H     0.32770   0.60359   0.76454   0.00000  Uiso   1.00
H220   H     0.28586   0.61779   0.82229   0.00000  Uiso   1.00
H221   H     0.26562   0.52146   0.65179   0.00000  Uiso   1.00
O222   O     0.31822   0.53468   0.69458   0.00000  Uiso   1.00
O223   O     0.29357   0.48131   0.58424   0.00000  Uiso   1.00
C224   C     0.24662   0.55708   0.79353   0.00000  Uiso   1.00
C225   C     0.23883   0.51830   0.75848   0.00000  Uiso   1.00
C226   C     0.26230   0.51066   0.72578   0.00000  Uiso   1.00
C227   C     0.29397   0.54190   0.72713   0.00000  Uiso   1.00
C228   C     0.30277   0.57983   0.76266   0.00000  Uiso   1.00
C229   C     0.27900   0.58776   0.79552   0.00000  Uiso   1.00
C230   C     0.29740   0.51829   0.65556   0.00000  Uiso   1.00
H231   H     0.37446   0.48866   0.57162   0.00000  Uiso   1.00
H232   H     0.25590   0.43901   0.51288   0.00000  Uiso   1.00
H233   H     0.40135   0.46331   0.50592   0.00000  Uiso   1.00
H234   H     0.34739   0.49378   0.62626   0.00000  Uiso   1.00
H235   H     0.28338   0.41575   0.44598   0.00000  Uiso   1.00
C236   C     0.19809   0.53406   0.98059   0.00000  Uiso   1.00
C237   C     0.21015   0.56449   0.02013   0.00000  Uiso   1.00
C238   C     0.22058   0.54907   0.05165   0.00000  Uiso   1.00
C239   C     0.21934   0.50301   0.04382   0.00000  Uiso   1.00
C240   C     0.20770   0.47284   1.00435   0.00000  Uiso   1.00
C241   C     0.19651   0.48812   0.97307   0.00000  Uiso   1.00
C242   C     0.21766   0.50292   0.11129   0.00000  Uiso   1.00
H243   H     0.27605   0.39642   0.21399   0.00000  Uiso   1.00
H244   H     0.23829   0.42008   0.16499   0.00000  Uiso   1.00
H245   H     0.22938   0.54805   0.25878   0.00000  Uiso   1.00
H246   H     0.26589   0.52361   0.30874   0.00000  Uiso   1.00
H247   H     0.25803   0.47138   0.13598   0.00000  Uiso   1.00
O248   O     0.21608   0.50408   0.17944   0.00000  Uiso   1.00
O249   O     0.23350   0.48633   0.07333   0.00000  Uiso   1.00
C250   C     0.27451   0.45860   0.26486   0.00000  Uiso   1.00
C251   C     0.26565   0.42944   0.22427   0.00000  Uiso   1.00
C252   C     0.24459   0.44322   0.19613   0.00000  Uiso   1.00
C253   C     0.23315   0.48707   0.20780   0.00000  Uiso   1.00
C254   C     0.23909   0.51475   0.24906   0.00000  Uiso   1.00
C255   C     0.25974   0.50074   0.27745   0.00000  Uiso   1.00
C256   C     0.23249   0.49099   0.14151   0.00000  Uiso   1.00
H257   H     0.23078   0.57287   0.08170   0.00000  Uiso   1.00
H258   H     0.20751   0.43734   0.99785   0.00000  Uiso   1.00
H259   H     0.21178   0.60009   0.02658   0.00000  Uiso   1.00
H260   H     0.19275   0.52348   0.11592   0.00000  Uiso   1.00
H261   H     0.18756   0.46400   0.94279   0.00000  Uiso   1.00
C262   C     0.30289   0.28082   0.43577   0.00000  Uiso   1.00
C263   C     0.28211   0.29645   0.47074   0.00000  Uiso   1.00
C264   C     0.24548   0.27471   0.47274   0.00000  Uiso   1.00
C265   C     0.22916   0.23650   0.43967   0.00000  Uiso   1.00
C266   C     0.24954   0.22163   0.40443   0.00000  Uiso   1.00
C267   C     0.28629   0.24322   0.40248   0.00000  Uiso   1.00
C268   C     0.18292   0.21115   0.47714   0.00000  Uiso   1.00
H269   H     1.01156   0.12539   0.48464   0.00000  Uiso   1.00
H270   H     0.08001   0.13909   0.46895   0.00000  Uiso   1.00
H271   H     0.10599   0.23865   0.58955   0.00000  Uiso   1.00
H272   H     0.03789   0.22500   0.60559   0.00000  Uiso   1.00
H273   H     0.12199   0.19505   0.45912   0.00000  Uiso   1.00
O274   O     0.13774   0.19927   0.52163   0.00000  Uiso   1.00
O275   O     0.19171   0.21458   0.43972   0.00000  Uiso   1.00
C276   C     1.01940   0.17425   0.54625   0.00000  Uiso   1.00
C277   C     0.03183   0.15048   0.50760   0.00000  Uiso   1.00
C278   C     0.07080   0.15866   0.49852   0.00000  Uiso   1.00
C279   C     0.09778   0.19107   0.52796   0.00000  Uiso   1.00
C280   C     0.08536   0.21416   0.56648   0.00000  Uiso   1.00
C281   C     0.04654   0.20626   0.57549   0.00000  Uiso   1.00
C282   C     0.14563   0.20027   0.48317   0.00000  Uiso   1.00
H283   H     0.22962   0.28823   0.49969   0.00000  Uiso   1.00
H284   H     0.23694   0.19299   0.37840   0.00000  Uiso   1.00
H285   H     0.29390   0.32585   0.49647   0.00000  Uiso   1.00
H286   H     0.20613   0.21749   0.50188   0.00000  Uiso   1.00
H287   H     0.30137   0.23092   0.37480   0.00000  Uiso   1.00
C288   C     0.94923  -0.00114   0.67204   0.00000  Uiso   1.00
C289   C     0.94144   0.95224   0.65570   0.00000  Uiso   1.00
C290   C     0.96880   0.92491   0.66365   0.00000  Uiso   1.00
C291   C     1.00519   0.94380   0.68738   0.00000  Uiso   1.00
C292   C     1.01337   0.99031   0.70234   0.00000  Uiso   1.00
C293   C     0.98570   0.01766   0.69486   0.00000  Uiso   1.00
C294   C     1.02903   0.87247   0.68048   0.00000  Uiso   1.00
H295   H     1.11118   0.77920   0.78679   0.00000  Uiso   1.00
H296   H     1.09923   0.81902   0.73996   0.00000  Uiso   1.00
H297   H    -0.00182   0.72509   0.67941   0.00000  Uiso   1.00
H298   H     0.01113   0.68390   0.72546   0.00000  Uiso   1.00
H299   H     1.05050   0.86303   0.73331   0.00000  Uiso   1.00
O300   O     1.03653   0.80013   0.68206   0.00000  Uiso   1.00
O301   O     1.03197   0.91895   0.70074   0.00000  Uiso   1.00
C302   C     0.06163   0.72903   0.76005   0.00000  Uiso   1.00
C303   C     1.08643   0.76710   0.76344   0.00000  Uiso   1.00
C304   C     1.07932   0.79013   0.73703   0.00000  Uiso   1.00
C305   C     1.04642   0.77623   0.70744   0.00000  Uiso   1.00
C306   C     0.02307   0.73679   0.70262   0.00000  Uiso   1.00
C307   C     0.03052   0.71331   0.72873   0.00000  Uiso   1.00
C308   C     1.04047   0.84687   0.70106   0.00000  Uiso   1.00
H309   H     0.96032   0.88941   0.65267   0.00000  Uiso   1.00
H310   H     1.04084   1.00547   0.72113   0.00000  Uiso   1.00
H311   H     0.91327   0.93692   0.63844   0.00000  Uiso   1.00
H312   H     1.01777   0.85701   0.64853   0.00000  Uiso   1.00
H313   H     0.99229   0.05354   0.70796   0.00000  Uiso   1.00
C314   C     0.04522   0.55447   0.82161   0.00000  Uiso   1.00
C315   C     0.03002   0.55204   0.78268   0.00000  Uiso   1.00
C316   C    -0.00472   0.52442   0.76369   0.00000  Uiso   1.00
C317   C    -0.02454   0.49950   0.78362   0.00000  Uiso   1.00
C318   C     0.98824   0.50590   0.82422   0.00000  Uiso   1.00
C319   C     0.02309   0.53288   0.84293   0.00000  Uiso   1.00
C320   C    -0.03502   0.42272   0.75359   0.00000  Uiso   1.00
H321   H     0.85657   0.24144   0.70788   0.00000  Uiso   1.00
H322   H     0.88642   0.31911   0.73374   0.00000  Uiso   1.00
H323   H    -0.00217   0.27414   0.68797   0.00000  Uiso   1.00
H324   H     0.96872   0.19683   0.66474   0.00000  Uiso   1.00
H325   H     0.91282   0.38165   0.72460   0.00000  Uiso   1.00
O326   O     0.96481   0.34525   0.72750   0.00000  Uiso   1.00
O327   O     0.94796   0.46333   0.76117   0.00000  Uiso   1.00
C328   C     0.91002   0.21362   0.68264   0.00000  Uiso   1.00
C329   C     0.88720   0.24855   0.70282   0.00000  Uiso   1.00
C330   C     0.90416   0.29295   0.71705   0.00000  Uiso   1.00
C331   C     0.94422   0.30260   0.71109   0.00000  Uiso   1.00
C332   C     0.96671   0.26740   0.69161   0.00000  Uiso   1.00
C333   C     0.94995   0.22345   0.67779   0.00000  Uiso   1.00
C334   C     0.94407   0.38333   0.73486   0.00000  Uiso   1.00
H335   H    -0.01425   0.51949   0.73228   0.00000  Uiso   1.00
H336   H     0.97308   0.48695   0.83994   0.00000  Uiso   1.00
H337   H     0.04687   0.56804   0.76555   0.00000  Uiso   1.00
H338   H    -0.00357   0.42251   0.76269   0.00000  Uiso   1.00
H339   H     0.03419   0.53448   0.87306   0.00000  Uiso   1.00
C340   C     0.70833   0.78366   0.04745   0.00000  Uiso   1.00
C341   C     0.74972   0.79351   0.05584   0.00000  Uiso   1.00
C342   C     0.77538   0.76037   0.04073   0.00000  Uiso   1.00
C343   C     0.76010   0.71614   0.01735   0.00000  Uiso   1.00
C344   C     0.71867   0.70618   1.01006   0.00000  Uiso   1.00
C345   C     0.69290   0.73956   0.02505   0.00000  Uiso   1.00
C346   C     0.82455   0.68890   0.01316   0.00000  Uiso   1.00
H347   H     0.95090   0.61839   0.88573   0.00000  Uiso   1.00
H348   H     0.89819   0.62282   0.93174   0.00000  Uiso   1.00
H349   H     0.95484   0.74846   0.01526   0.00000  Uiso   1.00
H350   H     0.00795   0.74413   0.96959   0.00000  Uiso   1.00
H351   H     0.84547   0.66615   0.95520   0.00000  Uiso   1.00
O352   O     0.89327   0.69071   1.00447   0.00000  Uiso   1.00
O353   O     0.78459   0.68268   0.99723   0.00000  Uiso   1.00
C354   C    -0.01672   0.68112   0.92397   0.00000  Uiso   1.00
C355   C     0.95181   0.64723   0.91368   0.00000  Uiso   1.00
C356   C     0.92150   0.64993   0.93978   0.00000  Uiso   1.00
C357   C     0.92209   0.68689   0.97647   0.00000  Uiso   1.00
C358   C     0.95378   0.72021   0.98686   0.00000  Uiso   1.00
C359   C    -0.01605   0.71766   0.96077   0.00000  Uiso   1.00
C360   C     0.85346   0.67919   0.98800   0.00000  Uiso   1.00
H361   H     0.80708   0.77008   0.04605   0.00000  Uiso   1.00
H362   H     0.70639   0.67259   0.99174   0.00000  Uiso   1.00
H363   H     0.76242   0.82732   0.07279   0.00000  Uiso   1.00
H364   H     0.83244   0.70407   0.04595   0.00000  Uiso   1.00
H365   H     0.66105   0.73118   1.01810   0.00000  Uiso   1.00
C366   C     0.58630   0.74990   0.21296   0.00000  Uiso   1.00
C367   C     0.55017   0.72984   0.21891   0.00000  Uiso   1.00
C368   C     0.55022   0.69869   0.23839   0.00000  Uiso   1.00
C369   C     0.58646   0.68734   0.25242   0.00000  Uiso   1.00
C370   C     0.62234   0.70648   0.24543   0.00000  Uiso   1.00
C371   C     0.62237   0.73789   0.22635   0.00000  Uiso   1.00
C372   C     0.56102   0.65857   0.30049   0.00000  Uiso   1.00
H373   H     0.47391   0.48326   0.28780   0.00000  Uiso   1.00
H374   H     0.51649   0.54545   0.28437   0.00000  Uiso   1.00
H375   H     0.49263   0.62538   0.40696   0.00000  Uiso   1.00
H376   H     0.44875   0.56317   0.40985   0.00000  Uiso   1.00
H377   H     0.57060   0.59568   0.30250   0.00000  Uiso   1.00
O378   O     0.52810   0.62963   0.34439   0.00000  Uiso   1.00
O379   O     0.58785   0.65504   0.27072   0.00000  Uiso   1.00
C380   C     0.45826   0.51835   0.34915   0.00000  Uiso   1.00
C381   C     0.47881   0.51364   0.31449   0.00000  Uiso   1.00
C382   C     0.50349   0.54941   0.31271   0.00000  Uiso   1.00
C383   C     0.50870   0.59038   0.34614   0.00000  Uiso   1.00
C384   C     0.48954   0.59404   0.38130   0.00000  Uiso   1.00
C385   C     0.46458   0.55849   0.38290   0.00000  Uiso   1.00
C386   C     0.55478   0.62536   0.31439   0.00000  Uiso   1.00
H387   H     0.52209   0.68300   0.24203   0.00000  Uiso   1.00
H388   H     0.65037   0.69727   0.25524   0.00000  Uiso   1.00
H389   H     0.52195   0.73823   0.20859   0.00000  Uiso   1.00
H390   H     0.54508   0.68818   0.31263   0.00000  Uiso   1.00
H391   H     0.65068   0.75267   0.22196   0.00000  Uiso   1.00
loop_
_geom_bond_atom_site_label_1
_geom_bond_atom_site_label_2
_geom_bond_distance
_geom_bond_site_symmetry_2
_ccdc_geom_bond_type
Y0     O10     2.248   .     S
Y0     O12     2.260   .     S
Y0     O13     2.254   .     S
Y0     O14     2.242   .     S
Y0     O15     2.272   .     S
Y0     O17     2.248   .     S
Y1     O8      2.257   .     S
Y1     O9      2.261   .     S
Y1     O11     2.257   .     S
Y1     O16     2.266   .     S
Y1     O18     2.269   .     S
Y1     O19     2.248   .     S
C2     O8      1.261   .     A
C2     O9      1.260   .     A
C2     C354    1.476   .     S
C3     O10     1.275   .     A
C3     O11     1.273   .     A
C3     C314    1.470   .     S
C4     O12     1.261   .     A
C4     O13     1.261   .     A
C4     C236    1.473   .     S
C5     O14     1.260   .     A
C5     O15     1.265   .     A
C5     C224    1.477   .     S
C6     O16     1.272   .     A
C6     O17     1.267   .     A
C6     C94     1.471   .     S
C7     O18     1.263   .     A
C7     O19     1.259   .     A
C7     C302    1.474   .     S
Y20    O30     2.236   .     S
Y20    O32     2.269   .     S
Y20    O33     2.253   .     S
Y20    O34     2.260   .     S
Y20    O35     2.263   .     S
Y20    O37     2.252   .     S
Y21    O28     2.269   .     S
Y21    O29     2.251   .     S
Y21    O31     2.232   .     S
Y21    O36     2.247   .     S
Y21    O38     2.256   .     S
Y21    O39     2.265   .     S
C22    O28     1.261   .     A
C22    O29     1.257   .     A
C22    C340    1.474   .     S
C23    O30     1.269   .     A
C23    O31     1.267   .     A
C23    C198    1.476   .     S
C24    O32     1.261   .     A
C24    O33     1.257   .     A
C24    C366    1.475   .     S
C25    O34     1.258   .     A
C25    O35     1.258   .     A
C25    C120    1.472   .     S
C26    O36     1.273   .     A
C26    O37     1.275   .     A
C26    C80     1.481   .     S
C27    O38     1.257   .     A
C27    O39     1.260   .     A
C27    C172    1.476   .     S
Y40    O50     2.253   .     S
Y40    O52     2.237   .     S
Y40    O53     2.263   .     S
Y40    O54     2.251   .     S
Y40    O55     2.251   .     S
Y40    O57     2.227   .     S
Y41    O48     2.267   .     S
Y41    O49     2.260   .     S
Y41    O51     2.274   .     S
Y41    O56     2.261   .     S
Y41    O58     2.262   .     S
Y41    O59     2.264   .     S
C42    O48     1.259   .     A
C42    O49     1.258   .     A
C42    C288    1.475   .     S
C43    O50     1.273   .     A
C43    O51     1.281   .     A
C43    C184    1.483   .     S
C44    O52     1.265   .     A
C44    O53     1.268   .     A
C44    C276    1.477   .     S
C45    O54     1.265   .     A
C45    O55     1.267   .     A
C45    C132    1.475   .     S
C46    O56     1.264   .     A
C46    O57     1.262   .     A
C46    C328    1.470   .     S
C47    O58     1.257   .     A
C47    O59     1.259   .     A
C47    C158    1.474   .     S
Y60    O70     2.243   .     S
Y60    O72     2.234   .     S
Y60    O73     2.264   .     S
Y60    O74     2.252   .     S
Y60    O75     2.248   .     S
Y60    O77     2.230   .     S
Y61    O68     2.254   .     S
Y61    O69     2.267   .     S
Y61    O71     2.268   .     S
Y61    O76     2.258   .     S
Y61    O78     2.269   .     S
Y61    O79     2.254   .     S
C62    O68     1.257   .     A
C62    O69     1.260   .     A
C62    C380    1.474   .     S
C63    O70     1.270   .     A
C63    O71     1.280   .     A
C63    C210    1.472   .     S
C64    O72     1.263   .     A
C64    O73     1.270   .     A
C64    C146    1.477   .     S
C65    O74     1.269   .     A
C65    O75     1.262   .     A
C65    C262    1.478   .     S
C66    O76     1.268   .     A
C66    O77     1.260   .     A
C66    C106    1.471   .     S
C67    O78     1.259   .     A
C67    O79     1.256   .     A
C67    C250    1.473   .     S
C80    C81     1.406   .     A
C80    C85     1.408   .     A
C81    C82     1.398   .     A
C81    H103    1.083   .     S
C82    C83     1.408   .     A
C82    H101    1.083   .     S
C83    C84     1.398   .     A
C83    O93     1.404   1_554 S
C84    C85     1.398   .     A
C84    H102    1.083   1_554 S
C85    H105    1.083   .     S
C86    H104    1.089   .     S
C86    O93     1.403   1_554 S
C86    C100    1.333   1_554 D
H87    C95     1.083   .     S
H88    C96     1.081   .     S
H89    C98     1.084   1_554 S
H90    C99     1.082   .     S
H91    C100    1.086   .     S
O92    C97     1.405   .     S
O92    C100    1.403   .     S
O93    C83     1.404   1_556 S
O93    C86     1.403   1_556 S
C94    C95     1.403   .     A
C94    C99     1.401   .     A
C95    C96     1.401   .     A
C96    C97     1.413   .     A
C97    C98     1.398   .     A
C98    C99     1.394   .     A
C98    H89     1.084   1_556 S
C100   C86     1.333   1_556 D
H102   C84     1.083   1_556 S
C106   C107    1.400   .     A
C106   C111    1.403   .     A
C107   C108    1.391   .     A
C107   H129    1.082   .     S
C108   C109    1.410   .     A
C108   H127    1.081   .     S
C109   C110    1.403   .     A
C109   O119    1.410   .     S
C110   C111    1.402   .     A
C110   H128    1.082   .     S
C111   H131    1.083   .     S
C112   O119    1.406   .     S
C112   C126    1.332   .     D
C112   H130    1.088   .     S
H113   C121    1.083   .     S
H114   C122    1.082   .     S
H115   C124    1.083   .     S
H116   C125    1.084   .     S
H117   C126    1.088   .     S
O118   C123    1.402   .     S
O118   C126    1.402   .     S
C120   C121    1.405   .     A
C120   C125    1.403   .     A
C121   C122    1.399   1_565 A
C122   C123    1.408   .     A
C122   C121    1.399   1_545 A
C123   C124    1.399   .     A
C124   C125    1.395   1_545 A
C125   C124    1.395   1_565 A
C132   C133    1.404   .     A
C132   C137    1.405   .     A
C133   C134    1.397   .     A
C133   H155    1.082   .     S
C134   C135    1.410   .     A
C134   H153    1.083   .     S
C135   C136    1.400   .     A
C135   O145    1.406   .     S
C136   C137    1.399   .     A
C136   H154    1.082   .     S
C137   H157    1.083   .     S
C138   O145    1.404   .     S
C138   C152    1.333   .     D
C138   H156    1.088   .     S
H139   C147    1.082   .     S
H140   C148    1.083   .     S
H141   C150    1.083   .     S
H142   C151    1.084   .     S
H143   C152    1.087   .     S
O144   C149    1.402   .     S
O144   C152    1.402   .     S
C146   C147    1.406   .     A
C146   C151    1.405   .     A
C147   C148    1.403   .     A
C148   C149    1.409   .     A
C149   C150    1.397   .     A
C150   C151    1.393   .     A
C158   C159    1.403   .     A
C158   C163    1.405   1_545 A
C159   C160    1.397   .     A
C159   H181    1.083   .     S
C160   C161    1.410   .     A
C160   H179    1.082   .     S
C161   C162    1.400   1_545 A
C161   O171    1.407   1_545 S
C162   C163    1.399   .     A
C162   H180    1.083   .     S
C162   C161    1.400   1_565 A
C163   H183    1.083   .     S
C163   C158    1.405   1_565 A
C164   H182    1.088   .     S
C164   O171    1.405   1_545 S
C164   C178    1.333   1_545 D
H165   C173    1.083   .     S
H166   C174    1.081   .     S
H167   C176    1.083   1_545 S
H168   C177    1.083   .     S
H169   C178    1.087   .     S
O170   C175    1.406   .     S
O170   C178    1.402   .     S
O171   C161    1.407   1_565 S
O171   C164    1.405   1_565 S
C172   C177    1.403   .     A
C172   C173    1.404   1_554 A
C173   C174    1.401   .     A
C173   C172    1.404   1_556 A
C174   C175    1.411   .     A
C175   C176    1.398   .     A
C176   H167    1.083   1_565 S
C176   C177    1.396   1_556 A
C177   C176    1.396   1_554 A
C178   C164    1.333   1_565 D
C184   C185    1.406   .     A
C184   C189    1.406   .     A
C185   C186    1.401   .     A
C185   H207    1.082   .     S
C186   C187    1.414   .     A
C186   H205    1.080   .     S
C187   C188    1.399   1_545 A
C187   O197    1.410   1_545 S
C188   H206    1.083   .     S
C188   C187    1.399   1_565 A
C188   C189    1.395   1_565 A
C189   C188    1.395   1_545 A
C189   H209    1.084   1_545 S
C190   O197    1.405   .     S
C190   C204    1.334   .     D
C190   H208    1.084   1_565 S
H191   C199    1.083   .     S
H192   C200    1.082   .     S
H193   C202    1.083   1_545 S
H194   C203    1.084   .     S
H195   C204    1.089   .     S
O196   C201    1.402   .     S
O196   C204    1.402   .     S
O197   C187    1.410   1_565 S
C198   C199    1.406   .     A
C198   C203    1.406   .     A
C199   C200    1.398   .     A
C200   C201    1.406   .     A
C201   C202    1.398   .     A
C202   C203    1.398   .     A
C202   H193    1.083   1_565 S
H208   C190    1.084   1_545 S
H209   C189    1.084   1_565 S
C210   C211    1.404   .     A
C210   C215    1.401   .     A
C211   C212    1.398   .     A
C211   H233    1.084   .     S
C212   C213    1.413   .     A
C212   H231    1.078   .     S
C213   C214    1.403   .     A
C213   O223    1.410   .     S
C214   C215    1.397   .     A
C214   H232    1.083   .     S
C215   H235    1.083   .     S
C216   O223    1.406   .     S
C216   C230    1.334   .     D
C216   H234    1.083   .     S
H217   C225    1.083   .     S
H218   C226    1.082   .     S
H219   C228    1.083   .     S
H220   C229    1.083   .     S
H221   C230    1.089   .     S
O222   C227    1.406   .     S
O222   C230    1.406   .     S
C224   C225    1.405   .     A
C224   C229    1.406   .     A
C225   C226    1.393   .     A
C226   C227    1.406   .     A
C227   C228    1.402   .     A
C228   C229    1.403   .     A
C236   C241    1.403   .     A
C236   C237    1.404   1_556 A
C237   C238    1.400   .     A
C237   H259    1.083   .     S
C237   C236    1.404   1_554 A
C238   C239    1.406   .     A
C238   H257    1.082   .     S
C239   O249    1.399   .     S
C239   C240    1.397   1_554 A
C240   C241    1.396   .     A
C240   H258    1.082   .     S
C240   C239    1.397   1_556 A
C241   H261    1.083   .     S
C242   O249    1.402   .     S
C242   C256    1.332   .     D
C242   H260    1.088   .     S
H243   C251    1.083   .     S
H244   C252    1.082   .     S
H245   C254    1.082   .     S
H246   C255    1.083   .     S
H247   C256    1.087   .     S
O248   C253    1.408   .     S
O248   C256    1.407   .     S
C250   C251    1.403   .     A
C250   C255    1.404   .     A
C251   C252    1.395   .     A
C252   C253    1.410   .     A
C253   C254    1.401   .     A
C254   C255    1.400   .     A
C262   C263    1.401   .     A
C262   C267    1.407   .     A
C263   C264    1.399   .     A
C263   H285    1.084   .     S
C264   C265    1.411   .     A
C264   H283    1.082   .     S
C265   C266    1.399   .     A
C265   O275    1.408   .     S
C266   C267    1.400   .     A
C266   H284    1.083   .     S
C267   H287    1.083   .     S
C268   O275    1.404   .     S
C268   C282    1.334   .     D
C268   H286    1.088   .     S
H269   C277    1.083   1_655 S
H270   C278    1.083   .     S
H271   C280    1.083   .     S
H272   C281    1.084   .     S
H273   C282    1.087   .     S
O274   C279    1.404   .     S
O274   C282    1.403   .     S
C276   C277    1.406   1_655 A
C276   C281    1.405   1_655 A
C277   C278    1.402   .     A
C277   H269    1.083   1_455 S
C277   C276    1.406   1_455 A
C278   C279    1.410   .     A
C279   C280    1.398   .     A
C280   C281    1.395   .     A
C281   C276    1.405   1_455 A
C288   C293    1.403   .     A
C288   C289    1.404   1_545 A
C289   C290    1.398   .     A
C289   H311    1.084   .     S
C289   C288    1.404   1_565 A
C290   C291    1.413   .     A
C290   H309    1.081   .     S
C291   C292    1.402   .     A
C291   O301    1.409   .     S
C292   H310    1.084   .     S
C292   C293    1.399   1_565 A
C293   H313    1.083   .     S
C293   C292    1.399   1_545 A
C294   O301    1.404   .     S
C294   C308    1.334   .     D
C294   H312    1.087   .     S
H295   C303    1.083   .     S
H296   C304    1.082   .     S
H297   C306    1.083   .     S
H298   C307    1.082   .     S
H299   C308    1.088   .     S
O300   C305    1.407   .     S
O300   C308    1.407   .     S
C302   C307    1.403   .     A
C302   C303    1.403   1_455 A
C303   C304    1.396   .     A
C303   C302    1.403   1_655 A
C304   C305    1.409   .     A
C305   C306    1.402   1_655 A
C306   C307    1.401   .     A
C306   C305    1.402   1_455 A
C314   C315    1.405   .     A
C314   C319    1.403   .     A
C315   C316    1.401   .     A
C315   H337    1.083   .     S
C316   C317    1.401   .     A
C316   H335    1.083   .     S
C317   C318    1.403   1_455 A
C317   O327    1.401   1_455 S
C318   H336    1.082   .     S
C318   C317    1.403   1_655 A
C318   C319    1.394   1_655 A
C319   H339    1.084   .     S
C319   C318    1.394   1_455 A
C320   H338    1.091   .     S
C320   O327    1.406   1_455 S
C320   C334    1.333   1_455 D
H321   C329    1.083   .     S
H322   C330    1.081   .     S
H323   C332    1.083   1_455 S
H324   C333    1.083   .     S
H325   C334    1.086   .     S
O326   C331    1.403   .     S
O326   C334    1.402   .     S
O327   C317    1.401   1_655 S
O327   C320    1.406   1_655 S
C328   C329    1.404   .     A
C328   C333    1.399   .     A
C329   C330    1.405   .     A
C330   C331    1.412   .     A
C331   C332    1.397   .     A
C332   C333    1.391   .     A
C332   H323    1.083   1_655 S
C334   C320    1.333   1_655 D
C340   C341    1.403   .     A
C340   C345    1.404   .     A
C341   C342    1.394   .     A
C341   H363    1.083   .     S
C342   C343    1.412   .     A
C342   H361    1.082   .     S
C343   C344    1.402   1_554 A
C343   O353    1.410   1_554 S
C344   H362    1.083   .     S
C344   C343    1.402   1_556 A
C344   C345    1.401   1_556 A
C345   C344    1.401   1_554 A
C345   H365    1.083   1_554 S
C346   H364    1.088   .     S
C346   O353    1.403   1_554 S
C346   C360    1.333   1_554 D
H347   C355    1.083   .     S
H348   C356    1.082   .     S
H349   C358    1.083   1_554 S
H350   C359    1.083   .     S
H351   C360    1.087   .     S
O352   C357    1.404   .     S
O352   C360    1.404   .     S
O353   C343    1.410   1_556 S
O353   C346    1.403   1_556 S
C354   C359    1.404   .     A
C354   C355    1.405   1_455 A
C355   C356    1.400   .     A
C355   C354    1.405   1_655 A
C356   C357    1.409   .     A
C357   C358    1.399   .     A
C358   H349    1.083   1_556 S
C358   C359    1.397   1_655 A
C359   C358    1.397   1_455 A
C360   C346    1.333   1_556 D
H365   C345    1.083   1_556 S
C366   C367    1.404   .     A
C366   C371    1.405   .     A
C367   C368    1.399   .     A
C367   H389    1.083   .     S
C368   C369    1.409   .     A
C368   H387    1.082   .     S
C369   C370    1.397   .     A
C369   O379    1.404   .     S
C370   C371    1.396   .     A
C370   H388    1.082   .     S
C371   H391    1.083   .     S
C372   O379    1.403   .     S
C372   C386    1.333   .     D
C372   H390    1.089   .     S
H373   C381    1.083   .     S
H374   C382    1.081   .     S
H375   C384    1.083   .     S
H376   C385    1.083   .     S
H377   C386    1.087   .     S
O378   C383    1.408   .     S
O378   C386    1.402   .     S
C380   C381    1.403   .     A
C380   C385    1.403   .     A
C381   C382    1.399   .     A
C382   C383    1.413   .     A
C383   C384    1.399   .     A
C384   C385    1.396   .     A
