data_lcy+N155+E229
_audit_creation_date              2025-01-21
_audit_creation_method            'Materials Studio'
_symmetry_space_group_name_H-M    'P1'
_symmetry_Int_Tables_number       1
_symmetry_cell_setting            triclinic
loop_
_symmetry_equiv_pos_as_xyz
  x,y,z
_cell_length_a                    37.2927
_cell_length_b                    38.1725
_cell_length_c                    35.8886
_cell_angle_alpha                 89.2716
_cell_angle_beta                  97.5367
_cell_angle_gamma                 97.1948
loop_
_atom_site_label
_atom_site_type_symbol
_atom_site_fract_x
_atom_site_fract_y
_atom_site_fract_z
_atom_site_U_iso_or_equiv
_atom_site_adp_type
_atom_site_occupancy
C0     C     0.19731   0.58519   0.84476   0.00000  Uiso   1.00
Ho1    Ho    0.14562   0.60444   0.87747   0.00000  Uiso   1.00
C2     C     0.04397   0.66467   0.94910   0.00000  Uiso   1.00
Ho3    Ho    0.08773   0.63088   0.91679   0.00000  Uiso   1.00
O4     O     0.16376   0.57311   0.83498   0.00000  Uiso   1.00
O5     O     0.20299   0.60609   0.87299   0.00000  Uiso   1.00
O6     O     0.12304   0.55145   0.89558   0.00000  Uiso   1.00
O7     O     0.08675   0.58885   0.87547   0.00000  Uiso   1.00
C8     C     0.09085   0.55528   0.88848   0.00000  Uiso   1.00
C9     C     0.14708   0.67519   0.92868   0.00000  Uiso   1.00
O10    O     0.15184   0.57504   0.93301   0.00000  Uiso   1.00
O11    O     0.10769   0.59676   0.96322   0.00000  Uiso   1.00
O12    O     0.07854   0.67275   0.95338   0.00000  Uiso   1.00
O13    O     0.03272   0.63741   0.92839   0.00000  Uiso   1.00
O14    O     0.11820   0.68245   0.93712   0.00000  Uiso   1.00
O15    O     0.14506   0.63943   0.92298   0.00000  Uiso   1.00
O16    O     0.08262   0.66143   0.86406   0.00000  Uiso   1.00
O17    O     0.13072   0.64531   0.83681   0.00000  Uiso   1.00
C18    C     0.10299   0.66263   0.83727   0.00000  Uiso   1.00
C19    C     0.13419   0.57735   0.96240   0.00000  Uiso   1.00
C20    C     0.60165   0.81694   0.19594   0.00000  Uiso   1.00
Ho21   Ho    0.63736   0.84012   0.14007   0.00000  Uiso   1.00
C22    C     0.65854   0.93207   0.02382   0.00000  Uiso   1.00
Ho23   Ho    0.62098   0.90438   0.07689   0.00000  Uiso   1.00
O24    O     0.60994   0.79680   0.17138   0.00000  Uiso   1.00
O25    O     0.61098   0.84953   0.18942   0.00000  Uiso   1.00
O26    O     0.59323   0.80741   0.10114   0.00000  Uiso   1.00
O27    O     0.59238   0.86014   0.10386   0.00000  Uiso   1.00
C28    C     0.57842   0.83033   0.08552   0.00000  Uiso   1.00
C29    C     0.67811   0.91306   0.13397   0.00000  Uiso   1.00
O30    O     0.60607   0.87994   0.16580   0.00000  Uiso   1.00
O31    O     0.59415   0.92335   0.12214   0.00000  Uiso   1.00
O32    O     0.64580   0.94995   0.04722   0.00000  Uiso   1.00
O33    O     0.65320   0.89901   0.03013   0.00000  Uiso   1.00
O34    O     0.66139   0.93573   0.12089   0.00000  Uiso   1.00
O35    O     0.66646   0.88427   0.11327   0.00000  Uiso   1.00
O36    O     0.65263   0.86591   0.05034   0.00000  Uiso   1.00
O37    O     0.66025   0.82007   0.09252   0.00000  Uiso   1.00
C38    C     0.66311   0.83513   0.06029   0.00000  Uiso   1.00
C39    C     0.59217   0.90898   0.15483   0.00000  Uiso   1.00
C40    C     0.83367   0.21613   0.57693   0.00000  Uiso   1.00
Ho41   Ho    0.87171   0.17258   0.61555   0.00000  Uiso   1.00
C42    C     0.96192   0.08054   0.69673   0.00000  Uiso   1.00
Ho43   Ho    0.92004   0.12048   0.65744   0.00000  Uiso   1.00
O44    O     0.82726   0.18268   0.57260   0.00000  Uiso   1.00
O45    O     0.85986   0.22611   0.60263   0.00000  Uiso   1.00
O46    O     0.87664   0.14141   0.56483   0.00000  Uiso   1.00
O47    O     0.87230   0.11550   0.61595   0.00000  Uiso   1.00
C48    C     0.87583   0.11265   0.57887   0.00000  Uiso   1.00
C49    C     0.90911   0.17690   0.69539   0.00000  Uiso   1.00
O50    O     0.92096   0.18176   0.58604   0.00000  Uiso   1.00
O51    O     0.95616   0.14121   0.61596   0.00000  Uiso   1.00
O52    O     0.96598   0.11412   0.69952   0.00000  Uiso   1.00
O53    O     0.93523   0.06811   0.67241   0.00000  Uiso   1.00
O54    O     0.90694   0.14719   0.70774   0.00000  Uiso   1.00
O55    O     0.91763   0.17677   0.65944   0.00000  Uiso   1.00
O56    O     0.87052   0.11141   0.68771   0.00000  Uiso   1.00
O57    O     0.83343   0.14870   0.65402   0.00000  Uiso   1.00
C58    C     0.83955   0.12487   0.67984   0.00000  Uiso   1.00
C59    C     0.95075   0.16653   0.59186   0.00000  Uiso   1.00
C60    C     0.42125   0.29806   0.30904   0.00000  Uiso   1.00
Ho61   Ho    0.38362   0.33717   0.34280   0.00000  Uiso   1.00
C62    C     0.30787   0.42527   0.41275   0.00000  Uiso   1.00
Ho63   Ho    0.34480   0.38394   0.38064   0.00000  Uiso   1.00
O64    O     0.42494   0.30104   0.34496   0.00000  Uiso   1.00
O65    O     0.39693   0.31528   0.29178   0.00000  Uiso   1.00
O66    O     0.42887   0.32590   0.38537   0.00000  Uiso   1.00
O67    O     0.38229   0.34767   0.40124   0.00000  Uiso   1.00
C68    C     0.41805   0.34131   0.41068   0.00000  Uiso   1.00
C69    C     0.31596   0.39218   0.31186   0.00000  Uiso   1.00
O70    O     0.41977   0.38670   0.33771   0.00000  Uiso   1.00
O71    O     0.39105   0.42326   0.37076   0.00000  Uiso   1.00
O72    O     0.30487   0.42147   0.37695   0.00000  Uiso   1.00
O73    O     0.33140   0.40763   0.43104   0.00000  Uiso   1.00
O74    O     0.30758   0.40817   0.33830   0.00000  Uiso   1.00
O75    O     0.34248   0.37007   0.32266   0.00000  Uiso   1.00
O76    O     0.30624   0.33516   0.38234   0.00000  Uiso   1.00
O77    O     0.33924   0.29701   0.35565   0.00000  Uiso   1.00
C78    C     0.31126   0.30378   0.37156   0.00000  Uiso   1.00
C79    C     0.41685   0.41726   0.35149   0.00000  Uiso   1.00
C80    C     0.50366   0.78974   1.01117   0.00000  Uiso   1.00
C81    C     0.49601   0.81988   0.99024   0.00000  Uiso   1.00
C82    C     0.51459   0.85299   1.00091   0.00000  Uiso   1.00
C83    C     0.54113   0.85633   0.03236   0.00000  Uiso   1.00
C84    C     0.54961   0.82642   0.05317   0.00000  Uiso   1.00
C85    C     0.53083   0.79309   0.04247   0.00000  Uiso   1.00
C86    C     0.48257   0.75447   0.99993   0.00000  Uiso   1.00
H87    H     0.47536   0.81772   0.96585   0.00000  Uiso   1.00
H88    H     0.50840   0.87612   0.98477   0.00000  Uiso   1.00
H89    H     0.55538   0.88223   0.04013   0.00000  Uiso   1.00
H90    H     0.53707   0.76993   0.05861   0.00000  Uiso   1.00
H91    H     0.48779   0.74826   0.97107   0.00000  Uiso   1.00
H92    H     0.49158   0.73330   1.01920   0.00000  Uiso   1.00
C93    C     0.24009   0.71361   0.90644   0.00000  Uiso   1.00
C94    C     0.21080   0.68921   0.91460   0.00000  Uiso   1.00
C95    C     0.27136   0.70120   0.88977   0.00000  Uiso   1.00
C96    C     0.32035   0.71536   0.94096   0.00000  Uiso   1.00
C97    C     0.35650   0.70246   0.95637   0.00000  Uiso   1.00
C98    C     0.23892   0.74976   0.91188   0.00000  Uiso   1.00
C99    C     0.20862   0.76131   0.92479   0.00000  Uiso   1.00
C100   C     0.17966   0.70075   0.92609   0.00000  Uiso   1.00
H101   H     0.26133   0.76899  -0.09415   0.00000  Uiso   1.00
H102   H     0.20784   0.78923  -0.07116   0.00000  Uiso   1.00
H103   H     0.15484   0.74664   0.93954   0.00000  Uiso   1.00
H104   H     0.21177   0.66135   0.91060   0.00000  Uiso   1.00
H105   H     0.28539   0.72263   0.87366   0.00000  Uiso   1.00
C106   C     0.42130   0.72490   0.98424   0.00000  Uiso   1.00
C107   C     0.38191   0.73265   0.97683   0.00000  Uiso   1.00
H108   H     0.32636   0.73922   0.92353   0.00000  Uiso   1.00
H109   H     0.35183   0.68023   0.97615   0.00000  Uiso   1.00
H110   H     0.36910   0.69312   0.93250   0.00000  Uiso   1.00
H111   H     0.30625   0.72284   0.96456   0.00000  Uiso   1.00
H112   H     0.26054   0.67998   0.86890   0.00000  Uiso   1.00
H113   H     0.42339   0.70236   1.00398   0.00000  Uiso   1.00
H114   H     0.43017   0.71814   0.95707   0.00000  Uiso   1.00
N115   N     0.44372   0.75642   1.00081   0.00000  Uiso   1.00
N116   N     0.29712   0.68711   0.91879   0.00000  Uiso   1.00
C117   C     0.17880   0.73703   0.93130   0.00000  Uiso   1.00
C118   C     0.48265   0.23153   0.28579   0.00000  Uiso   1.00
C119   C     0.48851   0.24238   0.24929   0.00000  Uiso   1.00
C120   C     0.47158   0.27014   0.23231   0.00000  Uiso   1.00
C121   C     0.44912   0.28770   0.25175   0.00000  Uiso   1.00
C122   C     0.44392   0.27806   0.28875   0.00000  Uiso   1.00
C123   C     0.46076   0.24989   0.30576   0.00000  Uiso   1.00
C124   C     0.49947   0.20016   0.30251   0.00000  Uiso   1.00
H125   H     0.50573   0.22887   0.23375   0.00000  Uiso   1.00
H126   H     0.47583   0.27806   0.20399   0.00000  Uiso   1.00
H127   H     0.43640   0.30936   0.23812   0.00000  Uiso   1.00
H128   H     0.45643   0.24204   0.33410   0.00000  Uiso   1.00
H129   H     0.52960   0.20696   0.30537   0.00000  Uiso   1.00
H130   H     0.49141   0.19386   0.33083   0.00000  Uiso   1.00
C131   C     0.54083   0.97531   0.19749   0.00000  Uiso   1.00
C132   C     0.56317   0.96052   0.17485   0.00000  Uiso   1.00
C133   C     0.52984   0.01152   0.18940   0.00000  Uiso   1.00
C134   C     0.51862   0.06447   0.21911   0.00000  Uiso   1.00
C135   C     0.52603   0.08631   0.25523   0.00000  Uiso   1.00
C136   C     0.52667   0.95503   0.22631   0.00000  Uiso   1.00
C137   C     0.53468   0.92055   0.23246   0.00000  Uiso   1.00
C138   C     0.57109   0.92556   0.18063   0.00000  Uiso   1.00
H139   H     0.50902   0.96580   0.24370   0.00000  Uiso   1.00
H140   H     0.52327   0.90488   0.25442   0.00000  Uiso   1.00
H141   H     0.56064   0.87855   0.21394   0.00000  Uiso   1.00
H142   H     0.57363   0.97597   0.15220   0.00000  Uiso   1.00
H143   H     0.50004   0.00813   0.17955   0.00000  Uiso   1.00
C144   C     0.51056   0.14170   0.28480   0.00000  Uiso   1.00
C145   C     0.50284   0.11669   0.25126   0.00000  Uiso   1.00
H146   H     0.52761   0.08104   0.19549   0.00000  Uiso   1.00
H147   H     0.51882   0.06948   0.27931   0.00000  Uiso   1.00
H148   H     0.55542   0.09685   0.26039   0.00000  Uiso   1.00
H149   H     0.48877   0.05595   0.21314   0.00000  Uiso   1.00
H150   H     0.54414   0.02457   0.16664   0.00000  Uiso   1.00
H151   H     0.50421   0.12726   0.31067   0.00000  Uiso   1.00
H152   H     0.53989   0.15260   0.28795   0.00000  Uiso   1.00
N153   N     0.48730   0.16977   0.27749   0.00000  Uiso   1.00
N154   N     0.53827   0.03347   0.22342   0.00000  Uiso   1.00
C155   C     0.55645   0.90580   0.20965   0.00000  Uiso   1.00
C156   C     0.75825   0.25436   0.51448   0.00000  Uiso   1.00
C157   C     0.77522   0.28871   0.50915   0.00000  Uiso   1.00
C158   C     0.81068   0.29929   0.52623   0.00000  Uiso   1.00
C159   C     0.82957   0.27571   0.54872   0.00000  Uiso   1.00
C160   C     0.81329   0.24105   0.55377   0.00000  Uiso   1.00
C161   C     0.77768   0.23039   0.53630   0.00000  Uiso   1.00
C162   C     0.71904   0.24440   0.49839   0.00000  Uiso   1.00
H163   H     0.76066   0.30750   0.49231   0.00000  Uiso   1.00
H164   H     0.82344   0.32591   0.52227   0.00000  Uiso   1.00
H165   H     0.85711   0.28437   0.56170   0.00000  Uiso   1.00
H166   H     0.76483   0.20380   0.54044   0.00000  Uiso   1.00
H167   H     0.71670   0.24711   0.46730   0.00000  Uiso   1.00
H168   H     0.70939   0.21661   0.50532   0.00000  Uiso   1.00
C169   C     0.49681   0.35872   0.48882   0.00000  Uiso   1.00
C170   C     0.47690   0.34938   0.45362   0.00000  Uiso   1.00
C171   C     0.53769   0.36159   0.49394   0.00000  Uiso   1.00
C172   C     0.58866   0.32851   0.50053   0.00000  Uiso   1.00
C173   C     0.60142   0.29315   0.49300   0.00000  Uiso   1.00
C174   C     0.47823   0.36664   0.51867   0.00000  Uiso   1.00
C175   C     0.44034   0.36562   0.51329   0.00000  Uiso   1.00
C176   C     0.43885   0.34879   0.44803   0.00000  Uiso   1.00
H177   H     0.49304   0.37381   0.54605   0.00000  Uiso   1.00
H178   H     0.42619   0.37190   0.53635   0.00000  Uiso   1.00
H179   H     0.39141   0.35711   0.47424   0.00000  Uiso   1.00
H180   H     0.49115   0.34373   0.43037   0.00000  Uiso   1.00
H181   H     0.54887   0.37294   0.52212   0.00000  Uiso   1.00
C182   C     0.65904   0.26304   0.49730   0.00000  Uiso   1.00
C183   C     0.64191   0.29517   0.50735   0.00000  Uiso   1.00
H184   H     0.60318   0.34935   0.48402   0.00000  Uiso   1.00
H185   H     0.58610   0.27172   0.50794   0.00000  Uiso   1.00
H186   H     0.59669   0.28759   0.46229   0.00000  Uiso   1.00
H187   H     0.59551   0.33495   0.53101   0.00000  Uiso   1.00
H188   H     0.54819   0.37984   0.47233   0.00000  Uiso   1.00
H189   H     0.64485   0.23876   0.50885   0.00000  Uiso   1.00
H190   H     0.65680   0.26099   0.46615   0.00000  Uiso   1.00
N191   N     0.69711   0.26820   0.51423   0.00000  Uiso   1.00
N192   N     0.54924   0.32672   0.48984   0.00000  Uiso   1.00
C193   C     0.42073   0.35712   0.47804   0.00000  Uiso   1.00
C194   C     0.79116   0.09618   0.76367   0.00000  Uiso   1.00
C195   C     0.75459   0.09440   0.74759   0.00000  Uiso   1.00
C196   C     0.74589   0.10216   0.70960   0.00000  Uiso   1.00
C197   C     0.77356   0.11213   0.68746   0.00000  Uiso   1.00
C198   C     0.81030   0.11361   0.70297   0.00000  Uiso   1.00
C199   C     0.81894   0.10533   0.74110   0.00000  Uiso   1.00
C200   C     0.80038   0.09019   0.80519   0.00000  Uiso   1.00
H201   H     0.73288   0.08742   0.76464   0.00000  Uiso   1.00
H202   H     0.71762   0.10086   0.69740   0.00000  Uiso   1.00
H203   H     0.76630   0.11848   0.65818   0.00000  Uiso   1.00
H204   H     0.84722   0.10717   0.75352   0.00000  Uiso   1.00
H205   H     0.83029   0.09534   0.81428   0.00000  Uiso   1.00
H206   H     0.78774   0.10953   0.82047   0.00000  Uiso   1.00
C207   C     0.71390   0.94486   0.94197   0.00000  Uiso   1.00
C208   C     0.70006   0.93066   0.97436   0.00000  Uiso   1.00
C209   C     0.74080   0.92659   0.92384   0.00000  Uiso   1.00
C210   C     0.77213   0.95469   0.87378   0.00000  Uiso   1.00
C211   C     0.79396  -0.01053   0.86448   0.00000  Uiso   1.00
C212   C     0.70172   0.97587   0.92621   0.00000  Uiso   1.00
C213   C     0.67761   0.99333   0.94355   0.00000  Uiso   1.00
C214   C     0.67534   0.94790  -0.00845   0.00000  Uiso   1.00
H215   H     0.71119   0.98685   0.90076   0.00000  Uiso   1.00
H216   H     0.66862   1.01737   0.93143   0.00000  Uiso   1.00
H217   H     0.64555   0.99335  -0.01112   0.00000  Uiso   1.00
H218   H     0.70842   0.90624   0.98609   0.00000  Uiso   1.00
H219   H     0.72612   0.91140   0.89896   0.00000  Uiso   1.00
C220   C     0.81038   0.02877   0.80992   0.00000  Uiso   1.00
C221   C     0.79442  -0.00770   0.82198   0.00000  Uiso   1.00
H222   H     0.78518   0.93215   0.86469   0.00000  Uiso   1.00
H223   H     0.78097   0.01162   0.87453   0.00000  Uiso   1.00
H224   H     0.82236  -0.00909   0.87890   0.00000  Uiso   1.00
H225   H     0.74420   0.95383   0.85809   0.00000  Uiso   1.00
H226   H     0.75258   0.90707   0.94350   0.00000  Uiso   1.00
H227   H     0.83763   0.03615   0.82640   0.00000  Uiso   1.00
H228   H     0.81354   0.02741   0.77964   0.00000  Uiso   1.00
N229   N     0.78563   0.05456   0.81565   0.00000  Uiso   1.00
N230   N     0.77085   0.95249   0.91443   0.00000  Uiso   1.00
C231   C     0.66475   0.97968  -0.02374   0.00000  Uiso   1.00
C232   C     0.85523   0.04765   0.49791   0.00000  Uiso   1.00
C233   C     0.86007   0.01576   0.51682   0.00000  Uiso   1.00
C234   C     0.87078   0.01575   0.55567   0.00000  Uiso   1.00
C235   C     0.87668   0.04740   0.57605   0.00000  Uiso   1.00
C236   C     0.87269   0.07948   0.55749   0.00000  Uiso   1.00
C237   C     0.86247   0.07944   0.51838   0.00000  Uiso   1.00
C238   C     0.84342   0.04881   0.45610   0.00000  Uiso   1.00
H239   H     0.85535  -0.00911   0.50169   0.00000  Uiso   1.00
H240   H     0.87412  -0.00893   0.57010   0.00000  Uiso   1.00
H241   H     0.88423   0.04683   0.60622   0.00000  Uiso   1.00
H242   H     0.85908   0.10416   0.50392   0.00000  Uiso   1.00
H243   H     0.82907   0.07250   0.44960   0.00000  Uiso   1.00
H244   H     0.86813   0.05146   0.44153   0.00000  Uiso   1.00
C245   C     0.72409   0.92252   0.23417   0.00000  Uiso   1.00
C246   C     0.69835   0.92479   0.20211   0.00000  Uiso   1.00
C247   C     0.71499   0.92918   0.27286   0.00000  Uiso   1.00
C248   C     0.74847   0.95621   0.32987   0.00000  Uiso   1.00
C249   C     0.76886   0.99091   0.34609   0.00000  Uiso   1.00
C250   C     0.75822   0.91217   0.23010   0.00000  Uiso   1.00
C251   C     0.76629   0.90352   0.19470   0.00000  Uiso   1.00
C252   C     0.70639   0.91566   0.16660   0.00000  Uiso   1.00
H253   H     0.77829   0.91014   0.25450   0.00000  Uiso   1.00
H254   H     0.79246   0.89513   0.19183   0.00000  Uiso   1.00
H255   H     0.74650   0.89698   0.13598   0.00000  Uiso   1.00
H256   H     0.67164   0.93200   0.20498   0.00000  Uiso   1.00
H257   H     0.71851   0.90495   0.28991   0.00000  Uiso   1.00
C258   C     0.80452   0.02151   0.40329   0.00000  Uiso   1.00
C259   C     0.78317   0.98702   0.38765   0.00000  Uiso   1.00
H260   H     0.72354   0.94929   0.34379   0.00000  Uiso   1.00
H261   H     0.79217  -0.00087   0.33019   0.00000  Uiso   1.00
H262   H     0.75013   0.01156   0.34292   0.00000  Uiso   1.00
H263   H     0.76643   0.93499   0.33514   0.00000  Uiso   1.00
H264   H     0.68612   0.93406   0.27185   0.00000  Uiso   1.00
H265   H     0.82719   0.02923   0.38634   0.00000  Uiso   1.00
H266   H     0.78594   0.04228   0.40107   0.00000  Uiso   1.00
N267   N     0.81904   0.01703   0.44272   0.00000  Uiso   1.00
N268   N     0.73868   0.96016   0.28930   0.00000  Uiso   1.00
C269   C     0.74030   0.90475   0.16313   0.00000  Uiso   1.00
C270   C     0.25750   0.46057   0.48625   0.00000  Uiso   1.00
C271   C     0.23663   0.48341   0.46449   0.00000  Uiso   1.00
C272   C     0.23998   0.48817   0.42640   0.00000  Uiso   1.00
C273   C     0.26374   0.46973   0.40958   0.00000  Uiso   1.00
C274   C     0.28488   0.44678   0.43099   0.00000  Uiso   1.00
C275   C     0.28193   0.44266   0.46944   0.00000  Uiso   1.00
C276   C     0.25251   0.45427   0.52670   0.00000  Uiso   1.00
H277   H     0.21759   0.49734   0.47700   0.00000  Uiso   1.00
H278   H     0.22363   0.50569   0.40973   0.00000  Uiso   1.00
H279   H     0.26539   0.47321   0.37980   0.00000  Uiso   1.00
H280   H     0.29776   0.42466   0.48598   0.00000  Uiso   1.00
H281   H     0.22366   0.44323   0.52796   0.00000  Uiso   1.00
H282   H     0.27030   0.43473   0.53932   0.00000  Uiso   1.00
C283   C     0.25029   0.57490   0.76396   0.00000  Uiso   1.00
C284   C     0.22086   0.57566   0.78456   0.00000  Uiso   1.00
C285   C     0.24474   0.57666   0.72182   0.00000  Uiso   1.00
C286   C     0.25547   0.54847   0.66565   0.00000  Uiso   1.00
C287   C     0.25907   0.51294   0.64867   0.00000  Uiso   1.00
C288   C     0.28561   0.57488   0.78314   0.00000  Uiso   1.00
C289   C     0.29159   0.57653   0.82235   0.00000  Uiso   1.00
C290   C     0.22696   0.57816   0.82391   0.00000  Uiso   1.00
H291   H     0.30859   0.57439   0.76766   0.00000  Uiso   1.00
H292   H     0.31894   0.57710   0.83697   0.00000  Uiso   1.00
H293   H     0.26773   0.58142   0.87295   0.00000  Uiso   1.00
H294   H     0.19360   0.57636   0.76995   0.00000  Uiso   1.00
H295   H     0.26226   0.60033   0.71310   0.00000  Uiso   1.00
C296   C     0.25859   0.48157   0.58733   0.00000  Uiso   1.00
C297   C     0.26063   0.51706   0.60659   0.00000  Uiso   1.00
H298   H     0.22992   0.55795   0.65188   0.00000  Uiso   1.00
H299   H     0.28439   0.50299   0.66225   0.00000  Uiso   1.00
H300   H     0.23512   0.49381   0.65368   0.00000  Uiso   1.00
H301   H     0.27920   0.56787   0.66061   0.00000  Uiso   1.00
H302   H     0.21588   0.57965   0.71121   0.00000  Uiso   1.00
H303   H     0.28161   0.46754   0.59997   0.00000  Uiso   1.00
H304   H     0.23221   0.46568   0.59119   0.00000  Uiso   1.00
N305   N     0.26108   0.48760   0.54747   0.00000  Uiso   1.00
N306   N     0.25445   0.54450   0.70610   0.00000  Uiso   1.00
C307   C     0.26250   0.57877   0.84265   0.00000  Uiso   1.00
C308   C     0.16270   0.49834   1.01862   0.00000  Uiso   1.00
C309   C     0.14651   0.50217   1.05124   0.00000  Uiso   1.00
C310   C     0.12997   0.53224   1.05654   0.00000  Uiso   1.00
C311   C     0.12772   0.55789   1.02853   0.00000  Uiso   1.00
C312   C     0.14208   0.55371   0.99475   0.00000  Uiso   1.00
C313   C     0.16074   0.52439   0.99064   0.00000  Uiso   1.00
C314   C     0.17977   0.46548   0.01248   0.00000  Uiso   1.00
H315   H     0.14623   0.48173   0.07242   0.00000  Uiso   1.00
H316   H     0.11799   0.53518   1.08203   0.00000  Uiso   1.00
H317   H     0.11393   0.58054   1.03294   0.00000  Uiso   1.00
H318   H     0.17240   0.52093   0.96501   0.00000  Uiso   1.00
H319   H     0.16097   0.44152   0.01797   0.00000  Uiso   1.00
H320   H     0.18373   0.46353  -0.01751   0.00000  Uiso   1.00
C321   C     0.28472   0.43801   0.22183   0.00000  Uiso   1.00
C322   C     0.29173   0.43067   0.26039   0.00000  Uiso   1.00
C323   C     0.27673   0.47416   0.20878   0.00000  Uiso   1.00
C324   C     0.22301   0.49230   0.17112   0.00000  Uiso   1.00
C325   C     0.21322   0.46392   0.14042   0.00000  Uiso   1.00
C326   C     0.28733   0.41186   0.19543   0.00000  Uiso   1.00
C327   C     0.29673   0.37890   0.20736   0.00000  Uiso   1.00
C328   C     0.30232   0.39787   0.27233   0.00000  Uiso   1.00
H329   H     0.28297   0.41711   0.16557   0.00000  Uiso   1.00
H330   H     0.29878   0.35890   0.18693   0.00000  Uiso   1.00
H331   H     0.31282   0.34666   0.25439   0.00000  Uiso   1.00
H332   H     0.29081   0.45112   0.28079   0.00000  Uiso   1.00
H333   H     0.28735   0.47977   0.18140   0.00000  Uiso   1.00
C334   C     0.21440   0.45080   0.07225   0.00000  Uiso   1.00
C335   C     0.21605   0.47971   0.10157   0.00000  Uiso   1.00
H336   H     0.19793   0.50385   0.17546   0.00000  Uiso   1.00
H337   H     0.23204   0.44358   0.14509   0.00000  Uiso   1.00
H338   H     0.18507   0.45073   0.14158   0.00000  Uiso   1.00
H339   H     0.24274   0.51452   0.16283   0.00000  Uiso   1.00
H340   H     0.29156   0.49454   0.22888   0.00000  Uiso   1.00
H341   H     0.23876   0.43680   0.07915   0.00000  Uiso   1.00
H342   H     0.19002   0.43099   0.07346   0.00000  Uiso   1.00
N343   N     0.21575   0.46656   0.03492   0.00000  Uiso   1.00
N344   N     0.23745   0.47637   0.20651   0.00000  Uiso   1.00
C345   C     0.30446   0.37199   0.24562   0.00000  Uiso   1.00
C346   C     0.23521   0.24792   0.41365   0.00000  Uiso   1.00
C347   C     0.23285   0.21635   0.39338   0.00000  Uiso   1.00
C348   C     0.25581   0.21335   0.36613   0.00000  Uiso   1.00
C349   C     0.28122   0.24185   0.35874   0.00000  Uiso   1.00
C350   C     0.28377   0.27381   0.37853   0.00000  Uiso   1.00
C351   C     0.26058   0.27664   0.40602   0.00000  Uiso   1.00
C352   C     0.21079   0.25065   0.44330   0.00000  Uiso   1.00
H353   H     0.21350   0.19394   0.39904   0.00000  Uiso   1.00
H354   H     0.25399   0.18883   0.35077   0.00000  Uiso   1.00
H355   H     0.29876   0.23891   0.33746   0.00000  Uiso   1.00
H356   H     0.26254   0.30097   0.42185   0.00000  Uiso   1.00
H357   H     0.21062   0.22634   0.46084   0.00000  Uiso   1.00
H358   H     0.22155   0.27329   0.46240   0.00000  Uiso   1.00
C359   C     0.00250   0.21315   0.51737   0.00000  Uiso   1.00
C360   C     0.97371   0.19727   0.53592   0.00000  Uiso   1.00
C361   C    -0.00518   0.23199   0.48057   0.00000  Uiso   1.00
C362   C     0.04540   0.24205   0.44287   0.00000  Uiso   1.00
C363   C     0.07689   0.22124   0.43814   0.00000  Uiso   1.00
C364   C     0.03858   0.21181   0.53390   0.00000  Uiso   1.00
C365   C     1.04582   0.19362   0.56745   0.00000  Uiso   1.00
C366   C     0.98083   0.17979   0.57035   0.00000  Uiso   1.00
H367   H     0.06120   0.22465   0.52081   0.00000  Uiso   1.00
H368   H     0.07375   0.19248   0.57975   0.00000  Uiso   1.00
H369   H     1.02351   0.16417   0.61199   0.00000  Uiso   1.00
H370   H     0.94578   0.19883   0.52377   0.00000  Uiso   1.00
H371   H     0.00213   0.26094   0.48496   0.00000  Uiso   1.00
C372   C     0.14567   0.23333   0.44077   0.00000  Uiso   1.00
C373   C     0.10918   0.24631   0.42746   0.00000  Uiso   1.00
H374   H     0.03717   0.25594   0.41630   0.00000  Uiso   1.00
H375   H     0.08470   0.20764   0.46503   0.00000  Uiso   1.00
H376   H     0.06836   0.20095   0.41574   0.00000  Uiso   1.00
H377   H     0.05529   0.26223   0.46523   0.00000  Uiso   1.00
H378   H    -0.03483   0.22798   0.47031   0.00000  Uiso   1.00
H379   H     0.15017   0.23424   0.47204   0.00000  Uiso   1.00
H380   H     0.14541   0.20581   0.43085   0.00000  Uiso   1.00
N381   N     0.17439   0.25633   0.42523   0.00000  Uiso   1.00
N382   N     0.01406   0.21774   0.45209   0.00000  Uiso   1.00
C383   C     1.01718   0.17744   0.58552   0.00000  Uiso   1.00
C384   C     0.99894   0.00142   0.74609   0.00000  Uiso   1.00
C385   C     0.02951   0.01831   0.76895   0.00000  Uiso   1.00
C386   C     0.03849   0.05481   0.76720   0.00000  Uiso   1.00
C387   C     1.01671   0.07489   0.74318   0.00000  Uiso   1.00
C388   C     0.98579   0.05858   0.72028   0.00000  Uiso   1.00
C389   C     0.97727   0.02168   0.72150   0.00000  Uiso   1.00
C390   C    -0.01118   0.96224   0.74953   0.00000  Uiso   1.00
H391   H     0.04639   0.00316   0.78818   0.00000  Uiso   1.00
H392   H     0.06215   0.06762   0.78484   0.00000  Uiso   1.00
H393   H     1.02391   0.10327   0.74277   0.00000  Uiso   1.00
H394   H     0.95333   1.00886   0.70421   0.00000  Uiso   1.00
H395   H    -0.01940   0.95705   0.77801   0.00000  Uiso   1.00
H396   H     0.96532   0.95255   0.72826   0.00000  Uiso   1.00
C397   C     0.09238   0.73998   0.77191   0.00000  Uiso   1.00
C398   C     0.10468   0.71982   0.80298   0.00000  Uiso   1.00
C399   C     0.10360   0.77910   0.77062   0.00000  Uiso   1.00
C400   C     0.07835   0.83452   0.76362   0.00000  Uiso   1.00
C401   C     0.04345   0.85116   0.76516   0.00000  Uiso   1.00
C402   C     1.06801   0.72349   0.74224   0.00000  Uiso   1.00
C403   C     1.05591   0.68743   0.74362   0.00000  Uiso   1.00
C404   C     0.09243   0.68363   0.80426   0.00000  Uiso   1.00
H405   H     1.05798   0.73874   0.71830   0.00000  Uiso   1.00
H406   H     1.03681   0.67498   0.72088   0.00000  Uiso   1.00
H407   H     0.05789   0.63970   0.77566   0.00000  Uiso   1.00
H408   H     0.12298   0.73229   0.82638   0.00000  Uiso   1.00
H409   H     1.11516   0.78543   0.74392   0.00000  Uiso   1.00
C410   C     0.01366   0.90686   0.75514   0.00000  Uiso   1.00
C411   C     0.04824   0.88982   0.75331   0.00000  Uiso   1.00
H412   H     0.10054   0.84780   0.78436   0.00000  Uiso   1.00
H413   H     1.02089   0.83649   0.74595   0.00000  Uiso   1.00
H414   H     0.03637   0.84928   0.79432   0.00000  Uiso   1.00
H415   H     1.08638   0.83774   0.73485   0.00000  Uiso   1.00
H416   H     0.12486   0.78784   0.79451   0.00000  Uiso   1.00
H417   H     0.99093   0.89297   0.73548   0.00000  Uiso   1.00
H418   H     0.00673   0.90461   0.78439   0.00000  Uiso   1.00
N419   N     0.02015   0.94397   0.74447   0.00000  Uiso   1.00
N420   N     0.07144   0.79702   0.77259   0.00000  Uiso   1.00
C421   C     0.06802   0.66753   0.77455   0.00000  Uiso   1.00
C422   C     0.00170   0.49580   0.86659   0.00000  Uiso   1.00
C423   C     0.00644   0.46951   0.89385   0.00000  Uiso   1.00
C424   C     0.03816   0.47173   0.91957   0.00000  Uiso   1.00
C425   C     0.06548   0.50010   0.91830   0.00000  Uiso   1.00
C426   C     0.06095   0.52689   0.89161   0.00000  Uiso   1.00
C427   C     0.02871   0.52501   0.86619   0.00000  Uiso   1.00
C428   C    -0.03145   0.49193   0.83739   0.00000  Uiso   1.00
H429   H    -0.01428   0.44712   0.89498   0.00000  Uiso   1.00
H430   H     0.04175   0.45119   0.94029   0.00000  Uiso   1.00
H431   H     0.09014   0.50119   0.93814   0.00000  Uiso   1.00
H432   H     0.02521   0.54553   0.84532   0.00000  Uiso   1.00
H433   H    -0.05561   0.47891   0.84970   0.00000  Uiso   1.00
H434   H     0.96180   0.51850   0.82821   0.00000  Uiso   1.00
C435   C     0.91255   0.27187   0.72643   0.00000  Uiso   1.00
C436   C     0.91571   0.24227   0.70466   0.00000  Uiso   1.00
C437   C     0.92742   0.30841   0.71544   0.00000  Uiso   1.00
C438   C     0.97117   0.35845   0.73898   0.00000  Uiso   1.00
C439   C     0.95884   0.37681   0.77185   0.00000  Uiso   1.00
C440   C     0.89638   0.26706   0.75961   0.00000  Uiso   1.00
C441   C     0.88370   0.23318   0.77106   0.00000  Uiso   1.00
C442   C     0.90367   0.20811   0.71661   0.00000  Uiso   1.00
H443   H     0.89374   0.28958   0.77667   0.00000  Uiso   1.00
H444   H     0.87124   0.22963   0.79665   0.00000  Uiso   1.00
H445   H     0.87793   0.17767   0.75942   0.00000  Uiso   1.00
H446   H     0.92853   0.24574   0.67921   0.00000  Uiso   1.00
H447   H     0.90624   0.32628   0.71695   0.00000  Uiso   1.00
C448   C    -0.03658   0.43489   0.80650   0.00000  Uiso   1.00
C449   C    -0.02772   0.41637   0.77202   0.00000  Uiso   1.00
H450   H     1.00139   0.36331   0.74112   0.00000  Uiso   1.00
H451   H     0.92859   0.37288   0.76939   0.00000  Uiso   1.00
H452   H     0.97004   0.36487   0.79863   0.00000  Uiso   1.00
H453   H     0.95999   0.36969   0.71173   0.00000  Uiso   1.00
H454   H     0.93406   0.30863   0.68612   0.00000  Uiso   1.00
H455   H     0.93346   0.43054   0.80716   0.00000  Uiso   1.00
H456   H    -0.02237   0.42346   0.83206   0.00000  Uiso   1.00
N457   N    -0.02431   0.47278   0.80440   0.00000  Uiso   1.00
N458   N     0.96058   0.32021   0.74101   0.00000  Uiso   1.00
C459   C     0.88752   0.20380   0.74985   0.00000  Uiso   1.00
C460   C     0.72853   0.81144  -0.00499   0.00000  Uiso   1.00
C461   C     0.71314   0.77683  -0.01502   0.00000  Uiso   1.00
C462   C     0.68158   0.76183  -0.00098   0.00000  Uiso   1.00
C463   C     0.66518   0.78112   0.02336   0.00000  Uiso   1.00
C464   C     0.67983   0.81593   0.03322   0.00000  Uiso   1.00
C465   C     0.71146   0.83114   0.01888   0.00000  Uiso   1.00
C466   C     0.76365   0.82643  -0.01874   0.00000  Uiso   1.00
H467   H     0.72570   0.76131  -0.03349   0.00000  Uiso   1.00
H468   H     0.67002   0.73507  -0.00871   0.00000  Uiso   1.00
H469   H     0.64095   0.76894   0.03444   0.00000  Uiso   1.00
H470   H     0.72350   0.85759   0.02748   0.00000  Uiso   1.00
H471   H     0.76050   0.82442   0.95003   0.00000  Uiso   1.00
H472   H     0.77019   0.85493   0.98838   0.00000  Uiso   1.00
C473   C     0.96169   0.69413   0.98624   0.00000  Uiso   1.00
C474   C    -0.01637   0.67323   0.96927   0.00000  Uiso   1.00
C475   C     0.92321   0.68014  -0.00830   0.00000  Uiso   1.00
C476   C     0.87684   0.71913  -0.00630   0.00000  Uiso   1.00
C477   C     0.85301   0.74279   0.96980   0.00000  Uiso   1.00
C478   C    -0.02376   0.72831   0.99883   0.00000  Uiso   1.00
C479   C     0.01205   0.74150   0.99455   0.00000  Uiso   1.00
C480   C     0.01998   0.68622   0.96573   0.00000  Uiso   1.00
H481   H    -0.04008   0.74483   1.01200   0.00000  Uiso   1.00
H482   H     0.02301   0.76796   1.00400   0.00000  Uiso   1.00
H483   H     0.06165   0.73140   0.97526   0.00000  Uiso   1.00
H484   H     0.97270   0.64685   0.95941   0.00000  Uiso   1.00
H485   H     0.92084   0.68019   0.02234   0.00000  Uiso   1.00
C486   C     0.80908   0.78765  -0.02685   0.00000  Uiso   1.00
C487   C     0.83452   0.76446  -0.00469   0.00000  Uiso   1.00
H488   H     0.85917   0.69923   0.00826   0.00000  Uiso   1.00
H489   H     0.87014   0.76091   0.95287   0.00000  Uiso   1.00
H490   H     0.83207   0.72616   0.95053   0.00000  Uiso   1.00
H491   H     0.89565   0.73564   0.01507   0.00000  Uiso   1.00
H492   H     0.91654   0.65226  -0.01789   0.00000  Uiso   1.00
H493   H     0.82464   0.80595   0.95499   0.00000  Uiso   1.00
H494   H     0.78738   0.77040   0.95541   0.00000  Uiso   1.00
N495   N     0.79337   0.80802  -0.00026   0.00000  Uiso   1.00
N496   N     0.89773   0.70122   0.96965   0.00000  Uiso   1.00
C497   C     0.03389   0.72058   0.97828   0.00000  Uiso   1.00
C498   C     0.54299   0.76104   0.25866   0.00000  Uiso   1.00
C499   C     0.54610   0.78358   0.28984   0.00000  Uiso   1.00
C500   C     0.56786   0.81613   0.29065   0.00000  Uiso   1.00
C501   C     0.58635   0.82666   0.26021   0.00000  Uiso   1.00
C502   C     0.58322   0.80467   0.22853   0.00000  Uiso   1.00
C503   C     0.56199   0.77154   0.22817   0.00000  Uiso   1.00
C504   C     0.51804   0.72686   0.25757   0.00000  Uiso   1.00
H505   H     0.53146   0.77597   0.31343   0.00000  Uiso   1.00
H506   H     0.57021   0.83333   0.31483   0.00000  Uiso   1.00
H507   H     0.60308   0.85207   0.26142   0.00000  Uiso   1.00
H508   H     0.55946   0.75441   0.20387   0.00000  Uiso   1.00
H509   H     0.48999   0.73326   0.25942   0.00000  Uiso   1.00
H510   H     0.51760   0.71253   0.23070   0.00000  Uiso   1.00
C511   C     0.47834   0.50487   0.36007   0.00000  Uiso   1.00
C512   C     0.45217   0.47673   0.36767   0.00000  Uiso   1.00
C513   C     0.48739   0.53646   0.38577   0.00000  Uiso   1.00
C514   C     0.50232   0.59475   0.35954   0.00000  Uiso   1.00
C515   C     0.48598   0.62274   0.33437   0.00000  Uiso   1.00
C516   C     0.49615   0.50328   0.32812   0.00000  Uiso   1.00
C517   C     0.48817   0.47399   0.30427   0.00000  Uiso   1.00
C518   C     0.44426   0.44705   0.34389   0.00000  Uiso   1.00
H519   H     0.51634   0.52462   0.32170   0.00000  Uiso   1.00
H520   H     0.50186   0.47300   0.27958   0.00000  Uiso   1.00
H521   H     0.45657   0.42364   0.29295   0.00000  Uiso   1.00
H522   H     0.43832   0.47781   0.39227   0.00000  Uiso   1.00
H523   H     0.51738   0.54093   0.39462   0.00000  Uiso   1.00
C524   C     0.50101   0.67680   0.29560   0.00000  Uiso   1.00
C525   C     0.51598   0.65096   0.32447   0.00000  Uiso   1.00
H526   H     0.51589   0.60704   0.38655   0.00000  Uiso   1.00
H527   H     0.47112   0.60990   0.30818   0.00000  Uiso   1.00
H528   H     0.46645   0.63528   0.34916   0.00000  Uiso   1.00
H529   H     0.52287   0.58345   0.34502   0.00000  Uiso   1.00
H530   H     0.47453   0.53150   0.41188   0.00000  Uiso   1.00
H531   H     0.49004   0.66223   0.26905   0.00000  Uiso   1.00
H532   H     0.47879   0.68884   0.30657   0.00000  Uiso   1.00
N533   N     0.53027   0.70449   0.28898   0.00000  Uiso   1.00
N534   N     0.47316   0.56711   0.36689   0.00000  Uiso   1.00
C535   C     0.46249   0.44596   0.31208   0.00000  Uiso   1.00
loop_
_geom_bond_atom_site_label_1
_geom_bond_atom_site_label_2
_geom_bond_distance
_geom_bond_site_symmetry_2
_ccdc_geom_bond_type
C0     O4      1.283   .     A
C0     O5      1.277   .     A
C0     C290    1.467   .     S
Ho1    O4      2.175   .     S
Ho1    O5      2.160   .     S
Ho1    O6      2.215   .     S
Ho1    O7      2.194   .     S
Ho1    O10     2.275   .     S
Ho1    O15     2.127   .     S
Ho1    O17     2.195   .     S
C2     O12     1.277   .     A
C2     O13     1.281   .     A
C2     C480    1.473   .     S
Ho3    O7      2.192   .     S
Ho3    O11     2.211   .     S
Ho3    O12     2.169   .     S
Ho3    O13     2.190   .     S
Ho3    O14     2.226   .     S
Ho3    O15     2.105   .     S
Ho3    O16     2.210   .     S
O6     C8      1.220   .     D
O7     C8      1.378   .     S
C8     C426    1.469   .     S
C9     O14     1.221   .     D
C9     O15     1.374   .     S
C9     C100    1.472   .     S
O10    C19     1.324   .     A
O11    C19     1.311   .     A
O16    C18     1.298   .     A
O17    C18     1.297   .     A
C18    C404    1.461   .     S
C19    C312    1.483   .     S
C20    O24     1.270   .     A
C20    O25     1.276   .     A
C20    C502    1.475   .     S
Ho21   O24     2.207   .     S
Ho21   O25     2.190   .     S
Ho21   O26     2.268   .     S
Ho21   O27     2.193   .     S
Ho21   O30     2.300   .     S
Ho21   O35     2.172   .     S
Ho21   O37     2.192   .     S
C22    O32     1.264   .     A
C22    O33     1.275   .     A
C22    C214    1.475   .     S
Ho23   O27     2.169   .     S
Ho23   O31     2.191   .     S
Ho23   O32     2.197   .     S
Ho23   O33     2.214   .     S
Ho23   O34     2.274   .     S
Ho23   O35     2.211   .     S
Ho23   O36     2.285   .     S
O26    C28     1.188   .     D
O27    C28     1.334   .     S
C28    C84     1.470   .     S
C29    O34     1.186   .     D
C29    O35     1.328   .     S
C29    C252    1.465   .     S
O30    C39     1.316   .     A
O31    C39     1.296   .     A
O36    C38     1.315   .     A
O37    C38     1.296   .     A
C38    C464    1.470   .     S
C39    C138    1.485   .     S
C40    O44     1.277   .     A
C40    O45     1.277   .     A
C40    C160    1.473   .     S
Ho41   O44     2.179   .     S
Ho41   O45     2.176   .     S
Ho41   O46     2.227   .     S
Ho41   O47     2.181   .     S
Ho41   O50     2.226   .     S
Ho41   O55     2.161   .     S
Ho41   O57     2.221   .     S
C42    O52     1.275   .     A
C42    O53     1.281   .     A
C42    C388    1.477   .     S
Ho43   O47     2.156   .     S
Ho43   O51     2.210   .     S
Ho43   O52     2.166   .     S
Ho43   O53     2.187   .     S
Ho43   O54     2.223   .     S
Ho43   O55     2.164   .     S
Ho43   O56     2.251   .     S
O46    C48     1.201   .     D
O47    C48     1.361   .     S
C48    C236    1.473   .     S
C49    O54     1.210   .     D
C49    O55     1.369   .     S
C49    C442    1.471   .     S
O50    C59     1.309   .     A
O51    C59     1.305   .     A
O56    C58     1.318   .     A
O57    C58     1.309   .     A
C58    C198    1.475   .     S
C59    C366    1.479   .     S
C60    O64     1.283   .     A
C60    O65     1.277   .     A
C60    C122    1.471   .     S
Ho61   O64     2.187   .     S
Ho61   O65     2.163   .     S
Ho61   O66     2.204   .     S
Ho61   O67     2.148   .     S
Ho61   O70     2.201   .     S
Ho61   O75     2.150   .     S
Ho61   O77     2.202   .     S
C62    O72     1.283   .     A
C62    O73     1.281   .     A
C62    C274    1.475   .     S
Ho63   O67     2.146   .     S
Ho63   O71     2.202   .     S
Ho63   O72     2.183   .     S
Ho63   O73     2.175   .     S
Ho63   O74     2.196   .     S
Ho63   O75     2.142   .     S
Ho63   O76     2.211   .     S
O66    C68     1.226   .     D
O67    C68     1.383   .     S
C68    C176    1.470   .     S
C69    O74     1.229   .     D
C69    O75     1.393   .     S
C69    C328    1.466   .     S
O70    C79     1.295   .     A
O71    C79     1.300   .     A
O76    C78     1.306   .     A
O77    C78     1.307   .     A
C78    C350    1.480   .     S
C79    C518    1.478   .     S
C80    C81     1.405   .     A
C80    C86     1.503   .     S
C80    C85     1.406   1_556 A
C81    C82     1.396   .     A
C81    H87     1.084   .     S
C82    H88     1.082   .     S
C82    C83     1.396   1_556 A
C83    C84     1.403   .     A
C83    H89     1.083   .     S
C83    C82     1.396   1_554 A
C84    C85     1.406   .     A
C85    H90     1.084   .     S
C85    C80     1.406   1_554 A
C86    H91     1.113   .     S
C86    H92     1.112   .     S
C86    N115    1.464   .     S
C93    C94     1.403   .     A
C93    C95     1.507   .     S
C93    C98     1.403   .     A
C94    C100    1.404   .     A
C94    H104    1.081   .     S
C95    H105    1.113   .     S
C95    H112    1.111   .     S
C95    N116    1.466   .     S
C96    C97     1.526   .     S
C96    H108    1.114   .     S
C96    H111    1.112   .     S
C96    N116    1.467   .     S
C97    C107    1.527   .     S
C97    H109    1.111   .     S
C97    H110    1.112   .     S
C98    C99     1.398   .     A
C98    H101    1.083   1_556 S
C99    C117    1.398   .     A
C99    H102    1.082   1_556 S
C100   C117    1.404   .     A
H101   C98     1.083   1_554 S
H102   C99     1.082   1_554 S
H103   C117    1.084   .     S
C106   C107    1.523   .     S
C106   H113    1.111   .     S
C106   H114    1.113   .     S
C106   N115    1.462   .     S
C118   C119    1.405   .     A
C118   C123    1.407   .     A
C118   C124    1.503   .     S
C119   C120    1.394   .     A
C119   H125    1.083   .     S
C120   C121    1.394   .     A
C120   H126    1.083   .     S
C121   C122    1.405   .     A
C121   H127    1.084   .     S
C122   C123    1.405   .     A
C123   H128    1.083   .     S
C124   H129    1.113   .     S
C124   H130    1.112   .     S
C124   N153    1.465   .     S
C131   C132    1.407   .     A
C131   C136    1.403   .     A
C131   C133    1.504   1_565 S
C132   C138    1.410   .     A
C132   H142    1.084   .     S
C133   H143    1.113   .     S
C133   H150    1.112   .     S
C133   N154    1.466   .     S
C133   C131    1.504   1_545 S
C134   C135    1.526   .     S
C134   H146    1.113   .     S
C134   H149    1.113   .     S
C134   N154    1.464   .     S
C135   C145    1.526   .     S
C135   H147    1.111   .     S
C135   H148    1.112   .     S
C136   C137    1.394   .     A
C136   H139    1.083   .     S
C137   H140    1.083   .     S
C137   C155    1.395   .     A
C138   C155    1.406   .     A
H141   C155    1.078   .     S
C144   C145    1.521   .     S
C144   H151    1.111   .     S
C144   H152    1.112   .     S
C144   N153    1.461   .     S
C156   C157    1.405   .     A
C156   C161    1.406   .     A
C156   C162    1.503   .     S
C157   C158    1.396   .     A
C157   H163    1.084   .     S
C158   C159    1.396   .     A
C158   H164    1.083   .     S
C159   C160    1.405   .     A
C159   H165    1.083   .     S
C160   C161    1.405   .     A
C161   H166    1.084   .     S
C162   H167    1.112   .     S
C162   H168    1.113   .     S
C162   N191    1.462   .     S
C169   C170    1.405   .     A
C169   C171    1.502   .     S
C169   C174    1.405   .     A
C170   C176    1.404   .     A
C170   H180    1.084   .     S
C171   H181    1.113   .     S
C171   H188    1.113   .     S
C171   N192    1.464   .     S
C172   C173    1.525   .     S
C172   H184    1.114   .     S
C172   H187    1.114   .     S
C172   N192    1.463   .     S
C173   C183    1.523   .     S
C173   H185    1.111   .     S
C173   H186    1.112   .     S
C174   C175    1.396   .     A
C174   H177    1.083   .     S
C175   H178    1.083   .     S
C175   C193    1.396   .     A
C176   C193    1.404   .     A
H179   C193    1.084   .     S
C182   C183    1.520   .     S
C182   H189    1.112   .     S
C182   H190    1.113   .     S
C182   N191    1.460   .     S
C194   C195    1.403   .     A
C194   C199    1.405   .     A
C194   C200    1.506   .     S
C195   C196    1.396   .     A
C195   H201    1.083   .     S
C196   C197    1.397   .     A
C196   H202    1.082   .     S
C197   C198    1.404   .     A
C197   H203    1.082   .     S
C198   C199    1.405   .     A
C199   H204    1.084   .     S
C200   H205    1.114   .     S
C200   H206    1.110   .     S
C200   N229    1.466   .     S
C207   C208    1.408   .     A
C207   C209    1.508   .     S
C207   C212    1.406   .     A
C208   H218    1.082   .     S
C208   C214    1.405   1_556 A
C209   H219    1.113   .     S
C209   H226    1.110   .     S
C209   N230    1.470   .     S
C210   H222    1.112   .     S
C210   H225    1.114   .     S
C210   N230    1.467   .     S
C210   C211    1.525   1_565 S
C211   C221    1.530   .     S
C211   H223    1.112   .     S
C211   H224    1.111   .     S
C211   C210    1.525   1_545 S
C212   C213    1.396   .     A
C212   H215    1.083   .     S
C213   H216    1.083   .     S
C213   C231    1.396   1_556 A
C214   C231    1.405   .     A
C214   C208    1.405   1_554 A
H217   C231    1.084   .     S
C220   C221    1.524   .     S
C220   H227    1.112   .     S
C220   H228    1.111   .     S
C220   N229    1.465   .     S
C231   C213    1.396   1_554 A
C232   C233    1.406   .     A
C232   C237    1.405   .     A
C232   C238    1.509   .     S
C233   C234    1.399   .     A
C233   H239    1.083   .     S
C234   C235    1.399   .     A
C234   H240    1.082   .     S
C235   C236    1.401   .     A
C235   H241    1.083   .     S
C236   C237    1.405   .     A
C237   H242    1.085   .     S
C238   H243    1.114   .     S
C238   H244    1.111   .     S
C238   N267    1.467   .     S
C245   C246    1.407   .     A
C245   C247    1.504   .     S
C245   C250    1.405   .     A
C246   C252    1.405   .     A
C246   H256    1.084   .     S
C247   H257    1.114   .     S
C247   H264    1.111   .     S
C247   N268    1.465   .     S
C248   C249    1.524   .     S
C248   H260    1.113   .     S
C248   H263    1.113   .     S
C248   N268    1.465   .     S
C249   C259    1.529   .     S
C249   H261    1.112   1_565 S
C249   H262    1.112   1_565 S
C250   C251    1.396   .     A
C250   H253    1.083   .     S
C251   H254    1.082   .     S
C251   C269    1.396   .     A
C252   C269    1.401   .     A
H255   C269    1.084   .     S
C258   H265    1.113   .     S
C258   H266    1.112   .     S
C258   N267    1.463   .     S
C258   C259    1.523   1_545 S
C259   C258    1.523   1_565 S
H261   C249    1.112   1_545 S
H262   C249    1.112   1_545 S
C270   C271    1.403   .     A
C270   C275    1.404   .     A
C270   C276    1.500   .     S
C271   C272    1.396   .     A
C271   H277    1.083   .     S
C272   C273    1.397   .     A
C272   H278    1.083   .     S
C273   C274    1.406   .     A
C273   H279    1.084   .     S
C274   C275    1.404   .     A
C275   H280    1.083   .     S
C276   H281    1.112   .     S
C276   H282    1.113   .     S
C276   N305    1.462   .     S
C283   C284    1.405   .     A
C283   C285    1.501   .     S
C283   C288    1.404   .     A
C284   C290    1.403   .     A
C284   H294    1.084   .     S
C285   H295    1.114   .     S
C285   H302    1.113   .     S
C285   N306    1.463   .     S
C286   C287    1.522   .     S
C286   H298    1.114   .     S
C286   H301    1.113   .     S
C286   N306    1.463   .     S
C287   C297    1.524   .     S
C287   H299    1.113   .     S
C287   H300    1.113   .     S
C288   C289    1.396   .     A
C288   H291    1.083   .     S
C289   H292    1.082   .     S
C289   C307    1.396   .     A
C290   C307    1.403   .     A
H293   C307    1.083   .     S
C296   C297    1.518   .     S
C296   H303    1.112   .     S
C296   H304    1.113   .     S
C296   N305    1.459   .     S
C308   C309    1.403   .     A
C308   C313    1.406   .     A
C308   C314    1.507   1_556 S
C309   C310    1.395   .     A
C309   H315    1.083   1_556 S
C310   C311    1.397   .     A
C310   H316    1.082   .     S
C311   C312    1.407   .     A
C311   H317    1.083   .     S
C312   C313    1.409   .     A
C313   H318    1.084   .     S
C314   H319    1.112   .     S
C314   H320    1.110   .     S
C314   N343    1.468   .     S
C314   C308    1.507   1_554 S
H315   C309    1.083   1_554 S
C321   C322    1.405   .     A
C321   C323    1.504   .     S
C321   C326    1.406   .     A
C322   C328    1.405   .     A
C322   H332    1.084   .     S
C323   H333    1.115   .     S
C323   H340    1.111   .     S
C323   N344    1.469   .     S
C324   C325    1.532   .     S
C324   H336    1.112   .     S
C324   H339    1.115   .     S
C324   N344    1.468   .     S
C325   C335    1.523   .     S
C325   H337    1.107   .     S
C325   H338    1.111   .     S
C326   C327    1.395   .     A
C326   H329    1.083   .     S
C327   H330    1.082   .     S
C327   C345    1.394   .     A
C328   C345    1.402   .     A
H331   C345    1.083   .     S
C334   C335    1.525   .     S
C334   H341    1.110   .     S
C334   H342    1.113   .     S
C334   N343    1.466   .     S
C346   C347    1.403   .     A
C346   C351    1.404   .     A
C346   C352    1.502   .     S
C347   C348    1.396   .     A
C347   H353    1.083   .     S
C348   C349    1.397   .     A
C348   H354    1.083   .     S
C349   C350    1.406   .     A
C349   H355    1.084   .     S
C350   C351    1.408   .     A
C351   H356    1.085   .     S
C352   H357    1.114   .     S
C352   H358    1.111   .     S
C352   N381    1.466   .     S
C359   C361    1.507   .     S
C359   C364    1.404   .     A
C359   C360    1.406   1_455 A
C360   C366    1.407   .     A
C360   H370    1.084   .     S
C360   C359    1.406   1_655 A
C361   H371    1.113   .     S
C361   H378    1.111   .     S
C361   N382    1.470   .     S
C362   C363    1.526   .     S
C362   H374    1.111   .     S
C362   H377    1.114   .     S
C362   N382    1.469   .     S
C363   C373    1.528   .     S
C363   H375    1.112   .     S
C363   H376    1.111   .     S
C364   H367    1.081   .     S
C364   C365    1.395   1_455 A
C365   C383    1.396   .     A
C365   C364    1.395   1_655 A
C365   H368    1.082   1_655 S
C366   C383    1.406   .     A
H368   C365    1.082   1_455 S
H369   C383    1.083   .     S
C372   C373    1.522   .     S
C372   H379    1.113   .     S
C372   H380    1.112   .     S
C372   N381    1.462   .     S
C384   C389    1.408   .     A
C384   C385    1.405   1_655 A
C384   C390    1.504   1_645 S
C385   C386    1.394   .     A
C385   H391    1.084   .     S
C385   C384    1.405   1_455 A
C386   H392    1.083   .     S
C386   C387    1.395   1_455 A
C387   C388    1.406   .     A
C387   H393    1.083   .     S
C387   C386    1.395   1_655 A
C388   C389    1.406   .     A
C389   H394    1.084   1_545 S
C390   H395    1.113   .     S
C390   N419    1.466   .     S
C390   C384    1.504   1_465 S
C390   H396    1.113   1_455 S
H394   C389    1.084   1_565 S
H396   C390    1.113   1_655 S
C397   C398    1.406   .     A
C397   C399    1.501   .     S
C397   C402    1.406   1_455 A
C398   C404    1.402   .     A
C398   H408    1.084   .     S
C399   H416    1.112   .     S
C399   N420    1.463   .     S
C399   H409    1.113   1_455 S
C400   C401    1.526   .     S
C400   H412    1.113   .     S
C400   N420    1.462   .     S
C400   H415    1.113   1_455 S
C401   C411    1.526   .     S
C401   H414    1.112   .     S
C401   H413    1.112   1_455 S
C402   C403    1.396   .     A
C402   H405    1.084   .     S
C402   C397    1.406   1_655 A
C403   H406    1.083   .     S
C403   C421    1.395   1_655 A
C404   C421    1.402   .     A
H407   C421    1.084   .     S
H409   C399    1.113   1_655 S
C410   C411    1.524   .     S
C410   H418    1.113   .     S
C410   N419    1.462   .     S
C410   H417    1.112   1_455 S
H413   C401    1.112   1_655 S
H415   C400    1.113   1_655 S
H417   C410    1.112   1_655 S
C421   C403    1.395   1_455 A
C422   C423    1.403   .     A
C422   C427    1.407   .     A
C422   C428    1.506   .     S
C423   C424    1.396   .     A
C423   H429    1.082   .     S
C424   C425    1.396   .     A
C424   H430    1.082   .     S
C425   C426    1.403   .     A
C425   H431    1.083   .     S
C426   C427    1.405   .     A
C427   H432    1.085   .     S
C428   H433    1.114   .     S
C428   N457    1.470   .     S
C428   H434    1.111   1_455 S
H434   C428    1.111   1_655 S
C435   C436    1.407   .     A
C435   C437    1.503   .     S
C435   C440    1.404   .     A
C436   C442    1.405   .     A
C436   H446    1.085   .     S
C437   H447    1.113   .     S
C437   H454    1.112   .     S
C437   N458    1.465   .     S
C438   C439    1.529   .     S
C438   H450    1.111   .     S
C438   H453    1.114   .     S
C438   N458    1.467   .     S
C439   H451    1.111   .     S
C439   H452    1.112   .     S
C439   C449    1.530   1_655 S
C440   C441    1.396   .     A
C440   H443    1.084   .     S
C441   H444    1.082   .     S
C441   C459    1.396   .     A
C442   C459    1.404   .     A
H445   C459    1.084   .     S
C448   C449    1.526   .     S
C448   H456    1.110   .     S
C448   N457    1.465   .     S
C448   H455    1.112   1_455 S
C449   C439    1.530   1_455 S
H455   C448    1.112   1_655 S
C460   C461    1.404   .     A
C460   C465    1.408   .     A
C460   C466    1.504   .     S
C461   C462    1.395   .     A
C461   H467    1.082   .     S
C462   C463    1.396   .     A
C462   H468    1.083   .     S
C463   C464    1.403   .     A
C463   H469    1.084   .     S
C464   C465    1.405   .     A
C465   H470    1.084   .     S
C466   N495    1.467   .     S
C466   H471    1.114   1_554 S
C466   H472    1.110   1_554 S
H471   C466    1.114   1_556 S
H472   C466    1.110   1_556 S
C473   C474    1.408   1_655 A
C473   C475    1.504   1_556 S
C473   C478    1.405   1_655 A
C474   C480    1.405   .     A
C474   C473    1.408   1_455 A
C474   H484    1.084   1_455 S
C475   H485    1.115   .     S
C475   H492    1.110   .     S
C475   C473    1.504   1_554 S
C475   N496    1.468   1_554 S
C476   H488    1.113   .     S
C476   H491    1.113   .     S
C476   C477    1.524   1_554 S
C476   N496    1.464   1_554 S
C477   H489    1.112   .     S
C477   H490    1.112   .     S
C477   C476    1.524   1_556 S
C477   C487    1.525   1_556 S
C478   C479    1.394   .     A
C478   H481    1.082   .     S
C478   C473    1.405   1_455 A
C479   H482    1.082   .     S
C479   C497    1.393   .     A
C480   C497    1.406   .     A
H483   C497    1.084   .     S
H484   C474    1.084   1_655 S
C486   C487    1.520   .     S
C486   N495    1.462   .     S
C486   H493    1.112   1_554 S
C486   H494    1.112   1_554 S
C487   C477    1.525   1_554 S
H493   C486    1.112   1_556 S
H494   C486    1.112   1_556 S
N496   C475    1.468   1_556 S
N496   C476    1.464   1_556 S
C498   C499    1.404   .     A
C498   C503    1.407   .     A
C498   C504    1.502   .     S
C499   C500    1.395   .     A
C499   H505    1.084   .     S
C500   C501    1.395   .     A
C500   H506    1.083   .     S
C501   C502    1.406   .     A
C501   H507    1.084   .     S
C502   C503    1.405   .     A
C503   H508    1.084   .     S
C504   H509    1.114   .     S
C504   H510    1.112   .     S
C504   N533    1.465   .     S
C511   C512    1.407   .     A
C511   C513    1.504   .     S
C511   C516    1.404   .     A
C512   C518    1.405   .     A
C512   H522    1.083   .     S
C513   H523    1.114   .     S
C513   H530    1.111   .     S
C513   N534    1.467   .     S
C514   C515    1.524   .     S
C514   H526    1.113   .     S
C514   H529    1.113   .     S
C514   N534    1.465   .     S
C515   C525    1.527   .     S
C515   H527    1.113   .     S
C515   H528    1.112   .     S
C516   C517    1.395   .     A
C516   H519    1.082   .     S
C517   H520    1.082   .     S
C517   C535    1.395   .     A
C518   C535    1.407   .     A
H521   C535    1.084   .     S
C524   C525    1.523   .     S
C524   H531    1.113   .     S
C524   H532    1.112   .     S
C524   N533    1.462   .     S
