data_lcy+N144+E59
_audit_creation_date              2025-01-21
_audit_creation_method            'Materials Studio'
_symmetry_space_group_name_H-M    'P1'
_symmetry_Int_Tables_number       1
_symmetry_cell_setting            triclinic
loop_
_symmetry_equiv_pos_as_xyz
  x,y,z
_cell_length_a                    34.9754
_cell_length_b                    37.2117
_cell_length_c                    34.1417
_cell_angle_alpha                 86.1374
_cell_angle_beta                  86.8280
_cell_angle_gamma                 82.9303
loop_
_atom_site_label
_atom_site_type_symbol
_atom_site_fract_x
_atom_site_fract_y
_atom_site_fract_z
_atom_site_U_iso_or_equiv
_atom_site_adp_type
_atom_site_occupancy
C0     C     0.18303   0.72472   0.87854   0.00000  Uiso   1.00
Er1    Er    0.11531   0.59645   0.87360   0.00000  Uiso   1.00
Er2    Er    0.14563   0.64746   0.87889   0.00000  Uiso   1.00
C3     C     0.10250   0.62714   0.95431   0.00000  Uiso   1.00
O4     O     0.19552   0.61132   0.89771   0.00000  Uiso   1.00
C5     C     0.06537   0.66942   0.85229   0.00000  Uiso   1.00
C6     C     0.15342   0.61935   0.79704   0.00000  Uiso   1.00
C7     C     0.05382   0.56495   0.86190   0.00000  Uiso   1.00
O8     O     0.15326   0.74154   0.89126   0.00000  Uiso   1.00
O9     O     0.18898   0.68692   0.88259   0.00000  Uiso   1.00
O10    O     0.16460   0.64270   0.81795   0.00000  Uiso   1.00
O11    O     0.13401   0.59483   0.81235   0.00000  Uiso   1.00
O12    O     0.09536   0.68370   0.85975   0.00000  Uiso   1.00
O13    O     0.06544   0.63483   0.85586   0.00000  Uiso   1.00
C14    C     0.19695   0.57721   0.89928   0.00000  Uiso   1.00
O15    O     0.16775   0.56269   0.89082   0.00000  Uiso   1.00
O16    O     0.12364   0.65064   0.93943   0.00000  Uiso   1.00
O17    O     0.09566   0.60093   0.93464   0.00000  Uiso   1.00
O18    O     0.05488   0.59902   0.85760   0.00000  Uiso   1.00
O19    O     0.08581   0.54808   0.87112   0.00000  Uiso   1.00
C20    C     0.71875   0.90557   0.19436   0.00000  Uiso   1.00
Er21   Er    0.60084   0.84973   0.13450   0.00000  Uiso   1.00
Er22   Er    0.65617   0.87327   0.14725   0.00000  Uiso   1.00
C23    C     0.61385   0.91337   0.07800   0.00000  Uiso   1.00
O24    O     0.62276   0.90900   0.18783   0.00000  Uiso   1.00
C25    C     0.67438   0.81653   0.08852   0.00000  Uiso   1.00
C26    C     0.64314   0.80768   0.20163   0.00000  Uiso   1.00
C27    C     0.56752   0.80056   0.10194   0.00000  Uiso   1.00
O28    O     0.73889   0.92975   0.19744   0.00000  Uiso   1.00
O29    O     0.70945   0.89840   0.15655   0.00000  Uiso   1.00
O30    O     0.66646   0.83119   0.19416   0.00000  Uiso   1.00
O31    O     0.61290   0.80933   0.18236   0.00000  Uiso   1.00
O32    O     0.69085   0.83805   0.10720   0.00000  Uiso   1.00
O33    O     0.63803   0.81541   0.09399   0.00000  Uiso   1.00
C34    C     0.58692   0.90746   0.19443   0.00000  Uiso   1.00
O35    O     0.56985   0.88622   0.17575   0.00000  Uiso   1.00
O36    O     0.64328   0.91334   0.09853   0.00000  Uiso   1.00
O37    O     0.59019   0.89021   0.08623   0.00000  Uiso   1.00
O38    O     0.54975   0.82334   0.12439   0.00000  Uiso   1.00
O39    O     0.60253   0.80572   0.09487   0.00000  Uiso   1.00
C40    C     0.95450   0.20410   0.66867   0.00000  Uiso   1.00
Er41   Er    0.85054   0.12150   0.62827   0.00000  Uiso   1.00
Er42   Er    0.89581   0.14939   0.65798   0.00000  Uiso   1.00
C43    C     0.92628   0.07340   0.63361   0.00000  Uiso   1.00
O44    O     0.91771   0.17181   0.60246   0.00000  Uiso   1.00
C45    C     0.84820   0.10686   0.71690   0.00000  Uiso   1.00
C46    C     0.81968   0.19737   0.65074   0.00000  Uiso   1.00
C47    C     0.81523   0.11246   0.56412   0.00000  Uiso   1.00
O48    O     0.98909   0.20206   0.66041   0.00000  Uiso   1.00
O49    O     0.93954   0.17462   0.68913   0.00000  Uiso   1.00
O50    O     0.85337   0.19681   0.66322   0.00000  Uiso   1.00
O51    O     0.80992   0.16964   0.63585   0.00000  Uiso   1.00
O52    O     0.87501   0.12707   0.71417   0.00000  Uiso   1.00
O53    O     0.83270   0.09930   0.68617   0.00000  Uiso   1.00
C54    C     0.90262   0.16533   0.57124   0.00000  Uiso   1.00
O55    O     0.87424   0.14647   0.57299   0.00000  Uiso   1.00
O56    O     0.93578   0.10034   0.65062   0.00000  Uiso   1.00
O57    O     0.89247   0.07411   0.62134   0.00000  Uiso   1.00
O58    O     0.80682   0.09788   0.59751   0.00000  Uiso   1.00
O59    O     0.84405   0.13011   0.56474   0.00000  Uiso   1.00
C60    C     0.31972   0.29577   0.43051   0.00000  Uiso   1.00
Er61   Er    0.39540   0.38982   0.34790   0.00000  Uiso   1.00
Er62   Er    0.37235   0.33863   0.37520   0.00000  Uiso   1.00
C63    C     0.45574   0.34168   0.39281   0.00000  Uiso   1.00
O64    O     0.35825   0.36361   0.43069   0.00000  Uiso   1.00
C65    C     0.40460   0.32725   0.29258   0.00000  Uiso   1.00
C66    C     0.31189   0.39003   0.33097   0.00000  Uiso   1.00
C67    C     0.40747   0.45747   0.35150   0.00000  Uiso   1.00
O68    O     0.32476   0.28470   0.46451   0.00000  Uiso   1.00
O69    O     0.34945   0.28866   0.40191   0.00000  Uiso   1.00
O70    O     0.31659   0.36050   0.35225   0.00000  Uiso   1.00
O71    O     0.33990   0.40848   0.32373   0.00000  Uiso   1.00
O72    O     0.38688   0.31153   0.32092   0.00000  Uiso   1.00
O73    O     0.41244   0.35942   0.29572   0.00000  Uiso   1.00
C74    C     0.36386   0.39613   0.43449   0.00000  Uiso   1.00
O75    O     0.37703   0.41464   0.40475   0.00000  Uiso   1.00
O76    O     0.42962   0.32038   0.39673   0.00000  Uiso   1.00
O77    O     0.45023   0.37154   0.37260   0.00000  Uiso   1.00
O78    O     0.39163   0.43927   0.37942   0.00000  Uiso   1.00
O79    O     0.41714   0.43920   0.32189   0.00000  Uiso   1.00
C80    C     0.31026   0.74717   0.91388   0.00000  Uiso   1.00
C81    C     0.37549   0.75675   0.92912   0.00000  Uiso   1.00
H82    H     0.41944   0.73457   0.08747   0.00000  Uiso   1.00
C83    C     0.32402   0.76286   0.97941   0.00000  Uiso   1.00
C84    C     0.29803   0.75439   0.95280   0.00000  Uiso   1.00
N85    N     0.51750   0.77969   0.06536   0.00000  Uiso   1.00
N86    N     0.24389   0.74948   0.88896   0.00000  Uiso   1.00
O87    O     0.47461   0.76394   0.11276   0.00000  Uiso   1.00
O88    O     0.29569   0.71972   0.85789   0.00000  Uiso   1.00
H89    H     0.54467   0.75066   0.11454   0.00000  Uiso   1.00
H90    H     0.57355   0.75288   0.07002   0.00000  Uiso   1.00
H91    H     0.36790   0.73300   0.04258   0.00000  Uiso   1.00
H92    H     0.47249   0.80897   1.00469   0.00000  Uiso   1.00
H93    H     0.42256   0.80515   0.95919   0.00000  Uiso   1.00
H94    H     0.52314   0.78910   0.03648   0.00000  Uiso   1.00
H95    H     0.36006   0.74306   0.87273   0.00000  Uiso   1.00
H96    H     0.22989   0.72753   0.83619   0.00000  Uiso   1.00
H97    H     0.20477   0.77090   0.84580   0.00000  Uiso   1.00
H98    H     0.40562   0.75676   0.91970   0.00000  Uiso   1.00
H99    H     0.26860   0.75269   0.96325   0.00000  Uiso   1.00
H100   H     0.31360   0.76849   0.00910   0.00000  Uiso   1.00
H101   H     0.23369   0.76637   0.91133   0.00000  Uiso   1.00
C102   C     0.41984   0.75107   0.06009   0.00000  Uiso   1.00
C103   C     0.48124   0.77216   0.07803   0.00000  Uiso   1.00
C104   C     0.55130   0.76866   0.08847   0.00000  Uiso   1.00
C105   C     0.39146   0.76869   0.99724   0.00000  Uiso   1.00
C106   C     0.45003   0.77224   0.05019   0.00000  Uiso   1.00
C107   C     0.39054   0.74982   0.03423   0.00000  Uiso   1.00
C108   C     0.45027   0.79195   1.01353   0.00000  Uiso   1.00
C109   C     0.42143   0.78997   0.98731   0.00000  Uiso   1.00
C110   C     0.34942   0.74849   0.90240   0.00000  Uiso   1.00
C111   C     0.28286   0.73771   0.88532   0.00000  Uiso   1.00
C112   C     0.21581   0.74411   0.85996   0.00000  Uiso   1.00
C113   C     0.36309   0.76361   0.96803   0.00000  Uiso   1.00
C114   C     0.52804   0.02991   0.20916   0.00000  Uiso   1.00
C115   C     0.49358   0.08908   0.19051   0.00000  Uiso   1.00
H116   H     0.54137   0.22004   0.24214   0.00000  Uiso   1.00
C117   C     0.53773   0.08330   0.24328   0.00000  Uiso   1.00
C118   C     0.54628   0.04611   0.23791   0.00000  Uiso   1.00
N119   N     0.43387   0.27125   0.26244   0.00000  Uiso   1.00
N120   N     0.56439   0.96785   0.21772   0.00000  Uiso   1.00
O121   O     0.49117   0.27886   0.23170   0.00000  Uiso   1.00
O122   O     0.50384   0.97625   0.19727   0.00000  Uiso   1.00
H123   H     0.43428   0.32492   0.23549   0.00000  Uiso   1.00
H124   H     0.38890   0.30745   0.23886   0.00000  Uiso   1.00
H125   H     0.55884   0.15566   0.23057   0.00000  Uiso   1.00
H126   H     0.42089   0.20624   0.23791   0.00000  Uiso   1.00
H127   H     0.43846   0.14252   0.22542   0.00000  Uiso   1.00
H128   H     0.41715   0.25316   0.27797   0.00000  Uiso   1.00
H129   H     0.48886   0.04049   0.16166   0.00000  Uiso   1.00
H130   H     0.53543   0.92073   0.23011   0.00000  Uiso   1.00
H131   H     0.57925   0.92068   0.25425   0.00000  Uiso   1.00
H132   H     0.47299   0.10522   0.17196   0.00000  Uiso   1.00
H133   H     0.56563   0.02986   0.25761   0.00000  Uiso   1.00
H134   H     0.55104   0.09482   0.26663   0.00000  Uiso   1.00
H135   H     0.58927   0.97932   0.22293   0.00000  Uiso   1.00
C136   C     0.51858   0.20328   0.23921   0.00000  Uiso   1.00
C137   C     0.46884   0.25796   0.24524   0.00000  Uiso   1.00
C138   C     0.41547   0.30861   0.25495   0.00000  Uiso   1.00
C139   C     0.50005   0.14402   0.22743   0.00000  Uiso   1.00
C140   C     0.47960   0.21827   0.24162   0.00000  Uiso   1.00
C141   C     0.52864   0.16646   0.23264   0.00000  Uiso   1.00
C142   C     0.45108   0.19556   0.23705   0.00000  Uiso   1.00
C143   C     0.46117   0.15903   0.22956   0.00000  Uiso   1.00
C144   C     0.50255   0.05206   0.18474   0.00000  Uiso   1.00
C145   C     0.53148   0.98979   0.20743   0.00000  Uiso   1.00
C146   C     0.56513   0.92856   0.22609   0.00000  Uiso   1.00
C147   C     0.51071   0.10502   0.22017   0.00000  Uiso   1.00
C148   C     0.56182   0.26453   0.45113   0.00000  Uiso   1.00
C149   C     0.62565   0.23677   0.46858   0.00000  Uiso   1.00
H150   H     0.65867   0.19930   0.62799   0.00000  Uiso   1.00
C151   C     0.58141   0.26405   0.51838   0.00000  Uiso   1.00
C152   C     0.55388   0.27370   0.49041   0.00000  Uiso   1.00
N153   N     0.76416   0.23343   0.62239   0.00000  Uiso   1.00
N154   N     0.50008   0.29672   0.42862   0.00000  Uiso   1.00
O155   O     0.71389   0.22009   0.66222   0.00000  Uiso   1.00
O156   O     0.54713   0.27768   0.38548   0.00000  Uiso   1.00
H157   H     0.80679   0.25523   0.65120   0.00000  Uiso   1.00
H158   H     0.77634   0.22973   0.68341   0.00000  Uiso   1.00
H159   H     0.61334   0.20523   0.57539   0.00000  Uiso   1.00
H160   H     0.73104   0.26758   0.55718   0.00000  Uiso   1.00
H161   H     0.68611   0.27192   0.50467   0.00000  Uiso   1.00
H162   H     0.77547   0.23791   0.59375   0.00000  Uiso   1.00
H163   H     0.60524   0.23894   0.41065   0.00000  Uiso   1.00
H164   H     0.51651   0.34254   0.39367   0.00000  Uiso   1.00
H165   H     0.49016   0.35214   0.43889   0.00000  Uiso   1.00
H166   H     0.65379   0.22344   0.45972   0.00000  Uiso   1.00
H167   H     0.52742   0.28978   0.49949   0.00000  Uiso   1.00
H168   H     0.57542   0.27217   0.54824   0.00000  Uiso   1.00
H169   H     0.48461   0.28898   0.45418   0.00000  Uiso   1.00
C170   C     0.66540   0.21485   0.60109   0.00000  Uiso   1.00
C171   C     0.72608   0.22827   0.62903   0.00000  Uiso   1.00
C172   C     0.79135   0.23074   0.65388   0.00000  Uiso   1.00
C173   C     0.64697   0.23867   0.53641   0.00000  Uiso   1.00
C174   C     0.69934   0.23175   0.59648   0.00000  Uiso   1.00
C175   C     0.63952   0.21814   0.57118   0.00000  Uiso   1.00
C176   C     0.70648   0.25248   0.56134   0.00000  Uiso   1.00
C177   C     0.68072   0.25536   0.53127   0.00000  Uiso   1.00
C178   C     0.59788   0.24563   0.44074   0.00000  Uiso   1.00
C179   C     0.53546   0.27863   0.41978   0.00000  Uiso   1.00
C180   C     0.49233   0.33437   0.41370   0.00000  Uiso   1.00
C181   C     0.61747   0.24603   0.50739   0.00000  Uiso   1.00
C182   C     0.66461   0.94142   0.94474   0.00000  Uiso   1.00
C183   C     0.67432   0.95122   0.87361   0.00000  Uiso   1.00
H184   H     0.70188   0.08557   0.80957   0.00000  Uiso   1.00
C185   C     0.70987   0.98221   0.91692   0.00000  Uiso   1.00
C186   C     0.69232   0.96513   0.94961   0.00000  Uiso   1.00
N187   N     0.80805   0.06627   0.75573   0.00000  Uiso   1.00
N188   N     0.64071   0.94035   0.01712   0.00000  Uiso   1.00
O189   O     0.75451   0.10475   0.76481   0.00000  Uiso   1.00
O190   O     0.62051   0.90354   0.97316   0.00000  Uiso   1.00
H191   H     0.82143   0.11727   0.77287   0.00000  Uiso   1.00
H192   H     0.86013   0.08118   0.77365   0.00000  Uiso   1.00
H193   H     0.67236   0.04424   0.85674   0.00000  Uiso   1.00
H194   H     0.78981  -0.00216   0.77896   0.00000  Uiso   1.00
H195   H     0.75999   0.95743   0.82711   0.00000  Uiso   1.00
H196   H     0.82041   0.03978   0.75165   0.00000  Uiso   1.00
H197   H     0.63645   0.91538   0.90112   0.00000  Uiso   1.00
H198   H     0.58095   0.93607   0.02881   0.00000  Uiso   1.00
H199   H     0.60062   0.96832   0.05595   0.00000  Uiso   1.00
H200   H     0.66605   0.94684   0.84436   0.00000  Uiso   1.00
H201   H     0.70017   0.97146   0.97824   0.00000  Uiso   1.00
H202   H     0.72990   0.00150   0.92119   0.00000  Uiso   1.00
H203   H     0.66359   0.95301   0.02584   0.00000  Uiso   1.00
C204   C     0.71450   0.05748   0.81190   0.00000  Uiso   1.00
C205   C     0.77025   0.07363   0.76865   0.00000  Uiso   1.00
C206   C     0.83486   0.09343   0.75695   0.00000  Uiso   1.00
C207   C     0.71441  -0.00180   0.84550   0.00000  Uiso   1.00
C208   C     0.74885   0.04570   0.79051   0.00000  Uiso   1.00
C209   C     0.69761   0.03401   0.83920   0.00000  Uiso   1.00
C210   C     0.76400   0.00873   0.79502   0.00000  Uiso   1.00
C211   C     0.74691  -0.01476   0.82253   0.00000  Uiso   1.00
C212   C     0.65710   0.93373   0.90621   0.00000  Uiso   1.00
C213   C     0.64128   0.92673   0.97864   0.00000  Uiso   1.00
C214   C     0.60680   0.94097   0.04430   0.00000  Uiso   1.00
C215   C     0.70013   0.97604   0.87895   0.00000  Uiso   1.00
C216   C     0.72669   0.93417   0.32013   0.00000  Uiso   1.00
C217   C     0.72748   0.96207   0.38231   0.00000  Uiso   1.00
H218   H     0.82187   0.07463   0.39469   0.00000  Uiso   1.00
C219   C     0.78097   0.96540   0.33461   0.00000  Uiso   1.00
C220   C     0.76282   0.94569   0.30922   0.00000  Uiso   1.00
N221   N     0.79809   0.07740   0.51105   0.00000  Uiso   1.00
N222   N     0.72498   0.89435   0.26502   0.00000  Uiso   1.00
O223   O     0.83586   0.09556   0.46015   0.00000  Uiso   1.00
O224   O     0.67039   0.92125   0.29342   0.00000  Uiso   1.00
H225   H     0.79997   0.13464   0.50715   0.00000  Uiso   1.00
H226   H     0.76112   0.11927   0.53684   0.00000  Uiso   1.00
H227   H     0.80082   0.03283   0.35120   0.00000  Uiso   1.00
H228   H     0.78656   1.00737   0.49540   0.00000  Uiso   1.00
H229   H     0.76611   0.96554   0.45158   0.00000  Uiso   1.00
H230   H     0.78353   0.05705   0.52528   0.00000  Uiso   1.00
H231   H     0.68114   0.93471   0.36578   0.00000  Uiso   1.00
H232   H     0.67512   0.88663   0.23485   0.00000  Uiso   1.00
H233   H     0.71728   0.85432   0.22706   0.00000  Uiso   1.00
H234   H     0.71266   0.96920   0.40989   0.00000  Uiso   1.00
H235   H     0.77648   0.94063   0.28057   0.00000  Uiso   1.00
H236   H     0.80837  -0.02540   0.32509   0.00000  Uiso   1.00
H237   H     0.75467   0.88697   0.26693   0.00000  Uiso   1.00
C238   C     0.81050   0.05055   0.40765   0.00000  Uiso   1.00
C239   C     0.81474   0.07357   0.47392   0.00000  Uiso   1.00
C240   C     0.79220   0.11253   0.52861   0.00000  Uiso   1.00
C241   C     0.78130   0.99616   0.39800   0.00000  Uiso   1.00
C242   C     0.80575   0.04492   0.44872   0.00000  Uiso   1.00
C243   C     0.79844   0.02655   0.38261   0.00000  Uiso   1.00
C244   C     0.79021   0.01347   0.46413   0.00000  Uiso   1.00
C245   C     0.77833   0.98932   0.43898   0.00000  Uiso   1.00
C246   C     0.70924   0.94267   0.35688   0.00000  Uiso   1.00
C247   C     0.70556   0.91611   0.29227   0.00000  Uiso   1.00
C248   C     0.70700   0.88339   0.23066   0.00000  Uiso   1.00
C249   C     0.76358   0.97357   0.37158   0.00000  Uiso   1.00
C250   C     0.18453   0.55224   0.68110   0.00000  Uiso   1.00
C251   C     0.19621   0.54675   0.61099   0.00000  Uiso   1.00
H252   H     0.35326   0.51002   0.55046   0.00000  Uiso   1.00
C253   C     0.24461   0.52004   0.65580   0.00000  Uiso   1.00
C254   C     0.22061   0.53232   0.68766   0.00000  Uiso   1.00
N255   N     0.32712   0.44307   0.47446   0.00000  Uiso   1.00
N256   N     0.17920   0.58962   0.73845   0.00000  Uiso   1.00
O257   O     0.36483   0.48720   0.47858   0.00000  Uiso   1.00
O258   O     0.12638   0.57392   0.71269   0.00000  Uiso   1.00
H259   H     0.38463   0.41890   0.48479   0.00000  Uiso   1.00
H260   H     0.34754   0.39069   0.49616   0.00000  Uiso   1.00
H261   H     0.31118   0.52925   0.60676   0.00000  Uiso   1.00
H262   H     0.25477   0.48501   0.49152   0.00000  Uiso   1.00
H263   H     0.21265   0.50500   0.54693   0.00000  Uiso   1.00
H264   H     0.29884   0.43668   0.47585   0.00000  Uiso   1.00
H265   H     0.14478   0.57423   0.63693   0.00000  Uiso   1.00
H266   H     0.13199   0.63188   0.74073   0.00000  Uiso   1.00
H267   H     0.17866   0.64520   0.74598   0.00000  Uiso   1.00
H268   H     0.18655   0.55409   0.58169   0.00000  Uiso   1.00
H269   H     0.23044   0.52686   0.71727   0.00000  Uiso   1.00
H270   H     0.27235   0.50486   0.66169   0.00000  Uiso   1.00
H271   H     0.20901   0.58450   0.74106   0.00000  Uiso   1.00
C272   C     0.32260   0.50852   0.54959   0.00000  Uiso   1.00
C273   C     0.33430   0.47553   0.48783   0.00000  Uiso   1.00
C274   C     0.35707   0.41180   0.47430   0.00000  Uiso   1.00
C275   C     0.25870   0.51714   0.58228   0.00000  Uiso   1.00
C276   C     0.30752   0.49416   0.51743   0.00000  Uiso   1.00
C277   C     0.29857   0.51926   0.58197   0.00000  Uiso   1.00
C278   C     0.26748   0.49425   0.51662   0.00000  Uiso   1.00
C279   C     0.24334   0.50584   0.54849   0.00000  Uiso   1.00
C280   C     0.17218   0.55835   0.64268   0.00000  Uiso   1.00
C281   C     0.16153   0.57132   0.71254   0.00000  Uiso   1.00
C282   C     0.16030   0.62324   0.75386   0.00000  Uiso   1.00
C283   C     0.23294   0.52787   0.61689   0.00000  Uiso   1.00
C284   C     0.26002   0.43621   0.20618   0.00000  Uiso   1.00
C285   C     0.23429   0.45029   0.14102   0.00000  Uiso   1.00
H286   H     0.32182   0.52151   0.02095   0.00000  Uiso   1.00
C287   C     0.28247   0.48487   0.16268   0.00000  Uiso   1.00
C288   C     0.28353   0.46427   0.19855   0.00000  Uiso   1.00
N289   N     0.23161   0.54503   0.95313   0.00000  Uiso   1.00
N290   N     0.27540   0.42353   0.27732   0.00000  Uiso   1.00
O291   O     0.28901   0.56291   0.96467   0.00000  Uiso   1.00
O292   O     0.24950   0.38327   0.24396   0.00000  Uiso   1.00
H293   H     0.25811   0.56994   0.90206   0.00000  Uiso   1.00
H294   H     0.23752   0.52925   0.89473   0.00000  Uiso   1.00
H295   H     0.32055   0.49162   0.08690   0.00000  Uiso   1.00
H296   H     0.19743   0.54196   0.02780   0.00000  Uiso   1.00
H297   H     0.19626   0.50995   0.09262   0.00000  Uiso   1.00
H298   H     0.20805   0.53200   0.96399   0.00000  Uiso   1.00
H299   H     0.21702   0.40814   0.18124   0.00000  Uiso   1.00
H300   H     0.25663   0.37939   0.31412   0.00000  Uiso   1.00
H301   H     0.25687   0.42111   0.33717   0.00000  Uiso   1.00
H302   H     0.21578   0.44394   0.11866   0.00000  Uiso   1.00
H303   H     0.30356   0.46999   0.21960   0.00000  Uiso   1.00
H304   H     0.30109   0.50607   0.15754   0.00000  Uiso   1.00
H305   H     0.28393   0.44942   0.27774   0.00000  Uiso   1.00
C306   C     0.29424   0.52006   0.03669   0.00000  Uiso   1.00
C307   C     0.26081   0.54868   0.97745   0.00000  Uiso   1.00
C308   C     0.23337   0.55453   0.91082   0.00000  Uiso   1.00
C309   C     0.25836   0.49854   0.09482   0.00000  Uiso   1.00
C310   C     0.25970   0.53357   0.01880   0.00000  Uiso   1.00
C311   C     0.29357   0.50286   0.07434   0.00000  Uiso   1.00
C312   C     0.22450   0.53067   0.04006   0.00000  Uiso   1.00
C313   C     0.22381   0.51276   0.07740   0.00000  Uiso   1.00
C314   C     0.23540   0.42959   0.17678   0.00000  Uiso   1.00
C315   C     0.26156   0.41273   0.24354   0.00000  Uiso   1.00
C316   C     0.27285   0.40310   0.31563   0.00000  Uiso   1.00
C317   C     0.25791   0.47805   0.13359   0.00000  Uiso   1.00
C318   C     0.02182   0.20291   0.52958   0.00000  Uiso   1.00
C319   C     0.09123   0.20467   0.53023   0.00000  Uiso   1.00
H320   H     0.15830   0.33845   0.50668   0.00000  Uiso   1.00
C321   C     0.05003   0.25787   0.50685   0.00000  Uiso   1.00
C322   C     0.01781   0.23919   0.51414   0.00000  Uiso   1.00
N323   N     0.24944   0.29787   0.43543   0.00000  Uiso   1.00
N324   N     0.95096   0.19841   0.53473   0.00000  Uiso   1.00
O325   O     0.21986   0.34458   0.46815   0.00000  Uiso   1.00
O326   O     0.99416   0.14854   0.53743   0.00000  Uiso   1.00
H327   H     0.28020   0.31959   0.38766   0.00000  Uiso   1.00
H328   H     0.28042   0.34445   0.43110   0.00000  Uiso   1.00
H329   H     0.10220   0.30847   0.52948   0.00000  Uiso   1.00
H330   H     0.20565   0.24170   0.44838   0.00000  Uiso   1.00
H331   H     0.15011   0.21277   0.47138   0.00000  Uiso   1.00
H332   H     0.24899   0.27220   0.42523   0.00000  Uiso   1.00
H333   H     0.06342   0.15822   0.54982   0.00000  Uiso   1.00
H334   H     0.92519   0.15521   0.51323   0.00000  Uiso   1.00
H335   H     0.89417   0.19703   0.51746   0.00000  Uiso   1.00
H336   H     0.11956   0.19088   0.53633   0.00000  Uiso   1.00
H337   H     0.99020   0.25298   0.50582   0.00000  Uiso   1.00
H338   H     0.04605   0.28536   0.49387   0.00000  Uiso   1.00
H339   H     0.94519   0.22635   0.53706   0.00000  Uiso   1.00
C340   C     0.15684   0.31115   0.49820   0.00000  Uiso   1.00
C341   C     0.21973   0.31335   0.45930   0.00000  Uiso   1.00
C342   C     0.28186   0.31692   0.41993   0.00000  Uiso   1.00
C343   C     0.12166   0.25856   0.50165   0.00000  Uiso   1.00
C344   C     0.18663   0.29343   0.47436   0.00000  Uiso   1.00
C345   C     0.12461   0.29408   0.51135   0.00000  Uiso   1.00
C346   C     0.18376   0.25736   0.46565   0.00000  Uiso   1.00
C347   C     0.15172   0.24028   0.47914   0.00000  Uiso   1.00
C348   C     0.05900   0.18609   0.53802   0.00000  Uiso   1.00
C349   C     0.98825   0.18160   0.53433   0.00000  Uiso   1.00
C350   C     0.91757   0.17873   0.53180   0.00000  Uiso   1.00
C351   C     0.08712   0.24051   0.51402   0.00000  Uiso   1.00
C352   C     0.01112   0.77552   0.76993   0.00000  Uiso   1.00
C353   C     0.97372   0.82352   0.73131   0.00000  Uiso   1.00
H354   H     0.98466   0.97260   0.75863   0.00000  Uiso   1.00
C355   C     0.02812   0.83720   0.76606   0.00000  Uiso   1.00
C356   C     0.03524   0.80082   0.77971   0.00000  Uiso   1.00
N357   N     0.94924   0.00971   0.65129   0.00000  Uiso   1.00
N358   N     0.03342   0.72655   0.82030   0.00000  Uiso   1.00
O359   O     0.98805   0.02048   0.69832   0.00000  Uiso   1.00
O360   O     0.00505   0.71428   0.76597   0.00000  Uiso   1.00
H361   H     0.98524   0.04928   0.62903   0.00000  Uiso   1.00
H362   H     0.95444   0.03519   0.59465   0.00000  Uiso   1.00
H363   H    -0.00241   0.90905   0.78285   0.00000  Uiso   1.00
H364   H     0.96908   0.93807   0.64281   0.00000  Uiso   1.00
H365   H     0.98045   0.87502   0.66746   0.00000  Uiso   1.00
H366   H     0.93073  -0.00737   0.64169   0.00000  Uiso   1.00
H367   H     0.96061   0.76887   0.73820   0.00000  Uiso   1.00
H368   H     0.01144   0.67528   0.82454   0.00000  Uiso   1.00
H369   H     0.01064   0.69731   0.86919   0.00000  Uiso   1.00
H370   H     0.94967   0.83186   0.71271   0.00000  Uiso   1.00
H371   H     0.05983   0.79262   0.79749   0.00000  Uiso   1.00
H372   H     0.04701   0.85620   0.77403   0.00000  Uiso   1.00
H373   H     0.04380   0.74584   0.83638   0.00000  Uiso   1.00
C374   C     0.98355   0.95156   0.73848   0.00000  Uiso   1.00
C375   C     0.97104  -0.00109   0.68328   0.00000  Uiso   1.00
C376   C     0.95587   0.04184   0.62573   0.00000  Uiso   1.00
C377   C     0.98970   0.88725   0.72709   0.00000  Uiso   1.00
C378   C     0.97508   0.96041   0.69892   0.00000  Uiso   1.00
C379   C     0.99098   0.91526   0.75234   0.00000  Uiso   1.00
C380   C     0.97394   0.93231   0.67375   0.00000  Uiso   1.00
C381   C     0.98089   0.89610   0.68773   0.00000  Uiso   1.00
C382   C     0.98027   0.78741   0.74561   0.00000  Uiso   1.00
C383   C     0.01691   0.73694   0.78497   0.00000  Uiso   1.00
C384   C     0.02814   0.69182   0.84166   0.00000  Uiso   1.00
C385   C     0.99735   0.84882   0.74169   0.00000  Uiso   1.00
C386   C     0.95564   0.31533   0.71805   0.00000  Uiso   1.00
C387   C     0.98072   0.35156   0.76503   0.00000  Uiso   1.00
H388   H     0.94256   0.50336   0.75723   0.00000  Uiso   1.00
C389   C     0.96182   0.37905   0.70160   0.00000  Uiso   1.00
C390   C     0.95155   0.34593   0.69141   0.00000  Uiso   1.00
N391   N     0.02405   0.51803   0.83203   0.00000  Uiso   1.00
N392   N     0.94569   0.27035   0.67027   0.00000  Uiso   1.00
O393   O    -0.02025   0.54438   0.79077   0.00000  Uiso   1.00
O394   O     0.93036   0.26085   0.73460   0.00000  Uiso   1.00
H395   H    -0.00615   0.56787   0.85141   0.00000  Uiso   1.00
H396   H     0.01065   0.53496   0.88905   0.00000  Uiso   1.00
H397   H     0.93241   0.44679   0.73029   0.00000  Uiso   1.00
H398   H     0.05147   0.45234   0.80095   0.00000  Uiso   1.00
H399   H     0.04041   0.39600   0.77419   0.00000  Uiso   1.00
H400   H     0.04339   0.49552   0.84029   0.00000  Uiso   1.00
H401   H     0.97302   0.29566   0.77638   0.00000  Uiso   1.00
H402   H     0.90009   0.23817   0.67270   0.00000  Uiso   1.00
H403   H     0.92609   0.24138   0.62599   0.00000  Uiso   1.00
H404   H    -0.00900   0.35363   0.79406   0.00000  Uiso   1.00
H405   H     0.93937   0.34471   0.66315   0.00000  Uiso   1.00
H406   H     0.95783   0.40246   0.68096   0.00000  Uiso   1.00
H407   H     0.96009   0.28545   0.64855   0.00000  Uiso   1.00
C408   C     0.96477   0.48054   0.76049   0.00000  Uiso   1.00
C409   C     0.00050   0.51700   0.80131   0.00000  Uiso   1.00
C410   C     0.01815   0.54709   0.85944   0.00000  Uiso   1.00
C411   C     0.98558   0.41724   0.75039   0.00000  Uiso   1.00
C412   C    -0.00240   0.48287   0.78186   0.00000  Uiso   1.00
C413   C     0.95884   0.44814   0.74495   0.00000  Uiso   1.00
C414   C     0.02530   0.45208   0.78566   0.00000  Uiso   1.00
C415   C     0.01919   0.41958   0.77017   0.00000  Uiso   1.00
C416   C     0.97008   0.31859   0.75505   0.00000  Uiso   1.00
C417   C     0.94316   0.28052   0.70831   0.00000  Uiso   1.00
C418   C     0.92915   0.23870   0.65829   0.00000  Uiso   1.00
C419   C     0.97671   0.38200   0.73840   0.00000  Uiso   1.00
C420   C     0.97670   0.66734   1.00299   0.00000  Uiso   1.00
C421   C     0.91369   0.68535   0.03407   0.00000  Uiso   1.00
H422   H     0.79842   0.78168   0.95699   0.00000  Uiso   1.00
C423   C     0.93641   0.72088   0.97746   0.00000  Uiso   1.00
C424   C     0.97067   0.69714   0.97558   0.00000  Uiso   1.00
N425   N     0.73757   0.79204   0.05905   0.00000  Uiso   1.00
N426   N     0.04785   0.65412   0.99325   0.00000  Uiso   1.00
O427   O     0.74379   0.81579  -0.00289   0.00000  Uiso   1.00
O428   O     0.01052   0.60941   1.00791   0.00000  Uiso   1.00
H429   H     0.68426   0.80152   0.02981   0.00000  Uiso   1.00
H430   H     0.68860   0.76429   0.06589   0.00000  Uiso   1.00
H431   H     0.86115   0.74549   0.94888   0.00000  Uiso   1.00
H432   H     0.81407   0.78280   0.08154   0.00000  Uiso   1.00
H433   H     0.87595   0.74535   0.07344   0.00000  Uiso   1.00
H434   H     0.75085   0.77910   0.08371   0.00000  Uiso   1.00
H435   H     0.95162   0.63874   0.05352   0.00000  Uiso   1.00
H436   H     0.08064   0.60294   1.00797   0.00000  Uiso   1.00
H437   H     0.10434   0.64214   1.01348   0.00000  Uiso   1.00
H438   H     0.89166   0.68011   0.05658   0.00000  Uiso   1.00
H439   H     0.99218   0.70190   0.95241   0.00000  Uiso   1.00
H440   H     0.93234   0.74373   0.95612   0.00000  Uiso   1.00
H441   H     0.04920   0.68190   0.98758   0.00000  Uiso   1.00
C442   C     0.81532   0.77442   0.98262   0.00000  Uiso   1.00
C443   C     0.75921   0.79903   0.02515   0.00000  Uiso   1.00
C444   C     0.69561   0.79247   0.05908   0.00000  Uiso   1.00
C445   C     0.87253   0.74149   1.01086   0.00000  Uiso   1.00
C446   C     0.80023   0.78347   0.02025   0.00000  Uiso   1.00
C447   C     0.85114   0.75361   0.97793   0.00000  Uiso   1.00
C448   C     0.82349   0.77435   0.05255   0.00000  Uiso   1.00
C449   C     0.85910   0.75320   0.04791   0.00000  Uiso   1.00
C450   C     0.94769   0.66147   0.03200   0.00000  Uiso   1.00
C451   C     0.01260   0.64173   1.00135   0.00000  Uiso   1.00
C452   C     0.08462   0.63045   0.99478   0.00000  Uiso   1.00
C453   C     0.90799   0.71558   1.00722   0.00000  Uiso   1.00
C454   C     0.47177   0.55846   0.28850   0.00000  Uiso   1.00
C455   C     0.48940   0.61499   0.25568   0.00000  Uiso   1.00
H456   H     0.60287   0.68405   0.32909   0.00000  Uiso   1.00
C457   C     0.53444   0.57859   0.29759   0.00000  Uiso   1.00
C458   C     0.50823   0.55304   0.30521   0.00000  Uiso   1.00
N459   N     0.62488   0.75063   0.23548   0.00000  Uiso   1.00
N460   N     0.44512   0.50666   0.32791   0.00000  Uiso   1.00
O461   O     0.64852   0.72359   0.29121   0.00000  Uiso   1.00
O462   O     0.40804   0.54506   0.28860   0.00000  Uiso   1.00
H463   H     0.65217   0.79044   0.26156   0.00000  Uiso   1.00
H464   H     0.68155   0.76431   0.22611   0.00000  Uiso   1.00
H465   H     0.55736   0.63911   0.33394   0.00000  Uiso   1.00
H466   H     0.59273   0.69521   0.20320   0.00000  Uiso   1.00
H467   H     0.54801   0.64922   0.20827   0.00000  Uiso   1.00
H468   H     0.60447   0.75136   0.21422   0.00000  Uiso   1.00
H469   H     0.43673   0.59349   0.24747   0.00000  Uiso   1.00
H470   H     0.38572   0.51320   0.34872   0.00000  Uiso   1.00
H471   H     0.42056   0.49979   0.38499   0.00000  Uiso   1.00
H472   H     0.48106   0.63917   0.23722   0.00000  Uiso   1.00
H473   H     0.51666   0.52985   0.32492   0.00000  Uiso   1.00
H474   H     0.56246   0.57368   0.31030   0.00000  Uiso   1.00
H475   H     0.47264   0.49399   0.33389   0.00000  Uiso   1.00
C476   C     0.59113   0.67680   0.30245   0.00000  Uiso   1.00
C477   C     0.62645   0.72339   0.26476   0.00000  Uiso   1.00
C478   C     0.65215   0.77796   0.23295   0.00000  Uiso   1.00
C479   C     0.55017   0.63984   0.27130   0.00000  Uiso   1.00
C480   C     0.60064   0.69421   0.26605   0.00000  Uiso   1.00
C481   C     0.56571   0.65049   0.30515   0.00000  Uiso   1.00
C482   C     0.58512   0.68351   0.23202   0.00000  Uiso   1.00
C483   C     0.55986   0.65681   0.23473   0.00000  Uiso   1.00
C484   C     0.46374   0.58893   0.26212   0.00000  Uiso   1.00
C485   C     0.44010   0.53583   0.30109   0.00000  Uiso   1.00
C486   C     0.41337   0.49609   0.35438   0.00000  Uiso   1.00
C487   C     0.52443   0.61071   0.27454   0.00000  Uiso   1.00
loop_
_geom_bond_atom_site_label_1
_geom_bond_atom_site_label_2
_geom_bond_distance
_geom_bond_site_symmetry_2
_ccdc_geom_bond_type
C0     O8      1.221   .     D
C0     O9      1.395   .     S
C0     C112    1.516   .     S
Er1    O11     2.159   .     S
Er1    O13     2.199   .     S
Er1    O15     2.177   .     S
Er1    O17     2.169   .     S
Er1    O18     2.201   .     S
Er1    O19     2.191   .     S
Er2    O4      2.167   .     S
Er2    O9      2.250   .     S
Er2    O10     2.161   .     S
Er2    O12     2.182   .     S
Er2    O16     2.171   .     S
C3     O16     1.276   .     A
C3     O17     1.274   .     A
C3     C452    1.491   .     S
O4     C14     1.262   .     A
C5     O12     1.278   .     A
C5     O13     1.284   .     A
C5     C384    1.505   .     S
C6     O10     1.271   .     A
C6     O11     1.271   .     A
C6     C282    1.481   .     S
C7     O18     1.271   .     A
C7     O19     1.259   .     A
C7     C410    1.493   .     S
C14    O15     1.268   .     A
C14    C308    1.495   .     S
C20    O28     1.222   .     D
C20    O29     1.399   .     S
C20    C248    1.508   .     S
Er21   O31     2.167   .     S
Er21   O33     2.206   .     S
Er21   O35     2.175   .     S
Er21   O37     2.172   .     S
Er21   O38     2.196   .     S
Er21   O39     2.187   .     S
Er22   O24     2.177   .     S
Er22   O29     2.232   .     S
Er22   O30     2.176   .     S
Er22   O32     2.174   .     S
Er22   O36     2.186   .     S
C23    O36     1.277   .     A
C23    O37     1.274   .     A
C23    C214    1.500   .     S
O24    C34     1.269   .     A
C25    O32     1.266   .     A
C25    O33     1.280   .     A
C25    C444    1.496   .     S
C26    O30     1.272   .     A
C26    O31     1.269   .     A
C26    C478    1.502   .     S
C27    O38     1.264   .     A
C27    O39     1.270   .     A
C27    C104    1.487   .     S
C34    O35     1.270   .     A
C34    C146    1.497   .     S
C40    O48     1.221   .     D
C40    O49     1.401   .     S
C40    C418    1.504   .     S
Er41   O51     2.166   .     S
Er41   O53     2.179   .     S
Er41   O55     2.212   .     S
Er41   O57     2.168   .     S
Er41   O58     2.201   .     S
Er41   O59     2.191   .     S
Er42   O44     2.159   .     S
Er42   O49     2.240   .     S
Er42   O50     2.172   .     S
Er42   O52     2.163   .     S
Er42   O56     2.178   .     S
C43    O56     1.278   .     A
C43    O57     1.273   .     A
C43    C376    1.495   .     S
O44    C54     1.265   .     A
C45    O52     1.268   .     A
C45    O53     1.271   .     A
C45    C206    1.494   .     S
C46    O50     1.272   .     A
C46    O51     1.271   .     A
C46    C172    1.496   .     S
C47    O58     1.265   .     A
C47    O59     1.271   .     A
C47    C240    1.492   .     S
C54    O55     1.281   .     A
C54    C350    1.494   .     S
C60    O68     1.220   .     D
C60    O69     1.400   .     S
C60    C342    1.504   .     S
Er61   O71     2.168   .     S
Er61   O73     2.190   .     S
Er61   O75     2.234   .     S
Er61   O77     2.152   .     S
Er61   O78     2.180   .     S
Er61   O79     2.189   .     S
Er62   O64     2.172   .     S
Er62   O69     2.234   .     S
Er62   O70     2.185   .     S
Er62   O72     2.175   .     S
Er62   O76     2.185   .     S
C63    O76     1.277   .     A
C63    O77     1.267   .     A
C63    C180    1.487   .     S
O64    C74     1.266   .     A
C65    O72     1.269   .     A
C65    O73     1.273   .     A
C65    C138    1.509   .     S
C66    O70     1.274   .     A
C66    O71     1.268   .     A
C66    C316    1.502   .     S
C67    O78     1.273   .     A
C67    O79     1.264   .     A
C67    C486    1.487   .     S
C74    O75     1.284   .     A
C74    C274    1.510   .     S
C80    C84     1.406   .     A
C80    C110    1.410   .     A
C80    C111    1.492   .     S
C81    H98     1.085   .     S
C81    C110    1.399   .     A
C81    C113    1.404   .     A
H82    C102    1.084   .     S
C83    C84     1.397   .     A
C83    C113    1.403   .     A
C83    H100    1.083   1_556 S
C84    H99     1.079   .     S
N85    H94     1.041   .     S
N85    C103    1.373   .     S
N85    C104    1.459   .     S
N86    H101    1.042   .     S
N86    C111    1.381   .     S
N86    C112    1.472   .     S
O87    C103    1.221   .     D
O88    C111    1.221   .     D
H89    C104    1.109   .     S
H90    C104    1.109   .     S
H91    C107    1.083   .     S
H92    C108    1.080   .     S
H93    C109    1.082   .     S
H95    C110    1.083   .     S
H96    C112    1.109   .     S
H97    C112    1.112   .     S
H100   C83     1.083   1_554 S
C102   C106    1.407   .     A
C102   C107    1.396   .     A
C103   C106    1.486   .     S
C105   C109    1.403   .     A
C105   C113    1.482   .     S
C105   C107    1.404   1_556 A
C106   C108    1.407   1_554 A
C107   C105    1.404   1_554 A
C108   C109    1.397   .     A
C108   C106    1.407   1_556 A
C114   C118    1.406   .     A
C114   C144    1.406   .     A
C114   C145    1.488   1_545 S
C115   H132    1.083   .     S
C115   C144    1.399   .     A
C115   C147    1.404   .     A
H116   C136    1.083   .     S
C117   C118    1.402   .     A
C117   H134    1.083   .     S
C117   C147    1.406   .     A
C118   H133    1.082   .     S
N119   H128    1.044   .     S
N119   C137    1.377   .     S
N119   C138    1.471   .     S
N120   H135    1.044   .     S
N120   C145    1.375   .     S
N120   C146    1.468   .     S
O121   C137    1.221   .     D
O122   C145    1.220   .     D
H123   C138    1.113   .     S
H124   C138    1.112   .     S
H125   C141    1.083   .     S
H126   C142    1.081   .     S
H127   C143    1.083   .     S
H129   C144    1.083   .     S
H130   C146    1.112   .     S
H131   C146    1.111   .     S
C136   C140    1.408   .     A
C136   C141    1.402   .     A
C137   C140    1.490   .     S
C139   C141    1.405   .     A
C139   C143    1.405   .     A
C139   C147    1.487   .     S
C140   C142    1.406   .     A
C142   C143    1.399   .     A
C145   C114    1.488   1_565 S
C148   C152    1.410   .     A
C148   C178    1.406   .     A
C148   C179    1.478   .     S
C149   H166    1.083   .     S
C149   C178    1.392   .     A
C149   C181    1.397   .     A
H150   C170    1.082   .     S
C151   C152    1.392   .     A
C151   H168    1.085   .     S
C151   C181    1.398   .     A
C152   H167    1.080   .     S
N153   H162    1.045   .     S
N153   C171    1.373   .     S
N153   C172    1.465   .     S
N154   H169    1.044   .     S
N154   C179    1.363   .     S
N154   C180    1.457   .     S
O155   C171    1.221   .     D
O156   C179    1.220   .     D
H157   C172    1.111   .     S
H158   C172    1.111   .     S
H159   C175    1.084   .     S
H160   C176    1.081   .     S
H161   C177    1.084   .     S
H163   C178    1.083   .     S
H164   C180    1.116   .     S
H165   C180    1.113   .     S
C170   C174    1.407   .     A
C170   C175    1.391   .     A
C171   C174    1.481   .     S
C173   C175    1.397   .     A
C173   C177    1.398   .     A
C173   C181    1.459   .     S
C174   C176    1.410   .     A
C176   C177    1.393   .     A
C182   C186    1.412   .     A
C182   C212    1.410   .     A
C182   C213    1.492   .     S
C183   H200    1.083   .     S
C183   C212    1.397   .     A
C183   C215    1.396   .     A
H184   C204    1.083   .     S
C185   C186    1.397   .     A
C185   C215    1.399   .     A
C185   H202    1.085   1_565 S
C186   H201    1.078   .     S
N187   H196    1.042   .     S
N187   C205    1.371   .     S
N187   C206    1.465   .     S
N188   H203    1.043   .     S
N188   C214    1.464   .     S
N188   C213    1.438   1_554 S
O189   C205    1.221   .     D
O190   C213    1.224   .     D
H191   C206    1.112   .     S
H192   C206    1.112   .     S
H193   C209    1.083   .     S
H194   C210    1.079   .     S
H195   C211    1.084   1_565 S
H197   C212    1.081   .     S
H198   C214    1.112   .     S
H199   C214    1.110   .     S
H202   C185    1.085   1_545 S
C204   C208    1.409   .     A
C204   C209    1.391   .     A
C205   C208    1.491   .     S
C207   C209    1.396   .     A
C207   C211    1.399   .     A
C207   C215    1.465   1_545 S
C208   C210    1.413   .     A
C210   C211    1.400   .     A
C211   H195    1.084   1_545 S
C213   N188    1.438   1_556 S
C215   C207    1.465   1_565 S
C216   C220    1.407   .     A
C216   C246    1.403   .     A
C216   C247    1.479   .     S
C217   H234    1.082   .     S
C217   C246    1.393   .     A
C217   C249    1.404   .     A
H218   C238    1.082   .     S
C219   C220    1.398   .     A
C219   C249    1.406   .     A
C219   H236    1.083   1_565 S
C220   H235    1.083   .     S
N221   H230    1.043   .     S
N221   C239    1.374   .     S
N221   C240    1.462   .     S
N222   H237    1.045   .     S
N222   C247    1.371   .     S
N222   C248    1.466   .     S
O223   C239    1.223   .     D
O224   C247    1.220   .     D
H225   C240    1.113   .     S
H226   C240    1.110   .     S
H227   C243    1.083   .     S
H228   C244    1.080   1_565 S
H229   C245    1.083   .     S
H231   C246    1.083   .     S
H232   C248    1.109   .     S
H233   C248    1.110   .     S
H236   C219    1.083   1_545 S
C238   C242    1.407   .     A
C238   C243    1.394   .     A
C239   C242    1.487   .     S
C241   C245    1.406   .     A
C241   C249    1.482   .     S
C241   C243    1.402   1_565 A
C242   C244    1.409   .     A
C243   C241    1.402   1_545 A
C244   H228    1.080   1_545 S
C244   C245    1.397   1_545 A
C245   C244    1.397   1_565 A
C250   C254    1.404   .     A
C250   C280    1.399   .     A
C250   C281    1.473   .     S
C251   H268    1.081   .     S
C251   C280    1.392   .     A
C251   C283    1.404   .     A
H252   C272    1.083   .     S
C253   C254    1.403   .     A
C253   H270    1.083   .     S
C253   C283    1.412   .     A
C254   H269    1.084   .     S
N255   H264    1.043   .     S
N255   C273    1.375   .     S
N255   C274    1.467   .     S
N256   H271    1.044   .     S
N256   C281    1.369   .     S
N256   C282    1.458   .     S
O257   C273    1.220   .     D
O258   C281    1.221   .     D
H259   C274    1.114   .     S
H260   C274    1.115   .     S
H261   C277    1.083   .     S
H262   C278    1.081   .     S
H263   C279    1.082   .     S
H265   C280    1.083   .     S
H266   C282    1.111   .     S
H267   C282    1.110   .     S
C272   C276    1.408   .     A
C272   C277    1.401   .     A
C273   C276    1.486   .     S
C275   C277    1.406   .     A
C275   C279    1.409   .     A
C275   C283    1.492   .     S
C276   C278    1.402   .     A
C278   C279    1.398   .     A
C284   C288    1.409   .     A
C284   C314    1.411   .     A
C284   C315    1.496   .     S
C285   H302    1.084   .     S
C285   C314    1.399   .     A
C285   C317    1.402   .     A
H286   C306    1.083   .     S
C287   C288    1.400   .     A
C287   H304    1.083   .     S
C287   C317    1.404   .     A
C288   H303    1.080   .     S
N289   H298    1.045   .     S
N289   C307    1.376   .     S
N289   C308    1.464   .     S
N290   H305    1.044   .     S
N290   C315    1.378   .     S
N290   C316    1.472   .     S
O291   C307    1.222   .     D
O292   C315    1.221   .     D
H293   C308    1.112   .     S
H294   C308    1.111   .     S
H295   C311    1.083   .     S
H296   C312    1.082   .     S
H297   C313    1.083   .     S
H299   C314    1.083   .     S
H300   C316    1.111   .     S
H301   C316    1.110   .     S
C306   C310    1.406   .     A
C306   C311    1.397   .     A
C307   C310    1.484   1_556 S
C309   C311    1.403   .     A
C309   C313    1.405   .     A
C309   C317    1.483   .     S
C310   C312    1.406   .     A
C310   C307    1.484   1_554 S
C312   C313    1.399   .     A
C318   C322    1.409   .     A
C318   C348    1.408   .     A
C318   C349    1.491   1_455 S
C319   H336    1.083   .     S
C319   C348    1.398   .     A
C319   C351    1.403   .     A
H320   C340    1.083   .     S
C321   C322    1.398   .     A
C321   H338    1.083   .     S
C321   C351    1.403   .     A
C322   H337    1.080   1_455 S
N323   H332    1.041   .     S
N323   C341    1.378   .     S
N323   C342    1.466   .     S
N324   H339    1.042   .     S
N324   C349    1.375   .     S
N324   C350    1.464   .     S
O325   C341    1.221   .     D
O326   C349    1.220   .     D
H327   C342    1.103   .     S
H328   C342    1.111   .     S
H329   C345    1.083   .     S
H330   C346    1.077   .     S
H331   C347    1.083   .     S
H333   C348    1.083   .     S
H334   C350    1.112   .     S
H335   C350    1.111   .     S
H337   C322    1.080   1_655 S
C340   C344    1.411   .     A
C340   C345    1.399   .     A
C341   C344    1.499   .     S
C343   C345    1.401   .     A
C343   C347    1.401   .     A
C343   C351    1.481   .     S
C344   C346    1.411   .     A
C346   C347    1.397   .     A
C349   C318    1.491   1_655 S
C352   C356    1.406   .     A
C352   C383    1.486   .     S
C352   C382    1.408   1_455 A
C353   H370    1.084   .     S
C353   C382    1.395   .     A
C353   C385    1.401   .     A
H354   C374    1.082   .     S
C355   C356    1.399   .     A
C355   H372    1.082   .     S
C355   C385    1.405   1_455 A
C356   H371    1.081   .     S
N357   H366    1.041   .     S
N357   C375    1.376   .     S
N357   C376    1.466   .     S
N358   H373    1.043   .     S
N358   C383    1.377   .     S
N358   C384    1.467   .     S
O359   C375    1.212   .     D
O360   C383    1.222   .     D
H361   C376    1.110   .     S
H362   C376    1.111   .     S
H363   C379    1.083   1_455 S
H364   C380    1.082   .     S
H365   C381    1.083   .     S
H367   C382    1.083   .     S
H368   C384    1.112   .     S
H369   C384    1.109   .     S
C374   C378    1.407   .     A
C374   C379    1.399   .     A
C375   C378    1.488   1_545 S
C377   C379    1.403   .     A
C377   C381    1.404   .     A
C377   C385    1.480   .     S
C378   C380    1.403   .     A
C378   C375    1.488   1_565 S
C379   H363    1.083   1_655 S
C380   C381    1.396   .     A
C382   C352    1.408   1_655 A
C385   C355    1.405   1_655 A
C386   C390    1.407   .     A
C386   C416    1.404   .     A
C386   C417    1.481   .     S
C387   C416    1.394   .     A
C387   C419    1.402   .     A
C387   H404    1.083   1_655 S
H388   C408    1.082   .     S
C389   C390    1.396   .     A
C389   H406    1.083   .     S
C389   C419    1.402   .     A
C390   H405    1.082   .     S
N391   H400    1.043   .     S
N391   C409    1.374   .     S
N391   C410    1.465   .     S
N392   H407    1.045   .     S
N392   C417    1.372   .     S
N392   C418    1.466   .     S
O393   C409    1.221   .     D
O394   C417    1.220   .     D
H395   C410    1.110   .     S
H396   C410    1.110   .     S
H397   C413    1.083   .     S
H398   C414    1.080   .     S
H399   C415    1.084   .     S
H401   C416    1.082   .     S
H402   C418    1.106   .     S
H403   C418    1.110   .     S
H404   C387    1.083   1_455 S
C408   C413    1.392   .     A
C408   C412    1.408   1_655 A
C409   C412    1.489   .     S
C411   C413    1.399   .     A
C411   C419    1.473   .     S
C411   C415    1.402   1_655 A
C412   C414    1.411   .     A
C412   C408    1.408   1_455 A
C414   C415    1.397   .     A
C415   C411    1.402   1_455 A
C420   C424    1.405   .     A
C420   C450    1.404   1_556 A
C420   C451    1.481   1_655 S
C421   H438    1.083   .     S
C421   C450    1.396   .     A
C421   C453    1.404   1_554 A
H422   C442    1.083   .     S
C423   C424    1.400   .     A
C423   H440    1.083   .     S
C423   C453    1.403   .     A
C424   H439    1.082   .     S
N425   H434    1.044   .     S
N425   C443    1.375   .     S
N425   C444    1.466   .     S
N426   H441    1.045   .     S
N426   C451    1.376   .     S
N426   C452    1.468   .     S
O427   C443    1.221   .     D
O428   C451    1.219   .     D
H429   C444    1.111   .     S
H430   C444    1.113   .     S
H431   C447    1.083   .     S
H432   C448    1.080   .     S
H433   C449    1.083   .     S
H435   C450    1.083   .     S
H436   C452    1.112   .     S
H437   C452    1.110   .     S
C442   C447    1.397   .     A
C442   C446    1.408   1_556 A
C443   C446    1.485   .     S
C445   C447    1.403   .     A
C445   C453    1.479   .     S
C445   C449    1.403   1_556 A
C446   C448    1.405   .     A
C446   C442    1.408   1_554 A
C448   C449    1.396   .     A
C449   C445    1.403   1_554 A
C450   C420    1.404   1_554 A
C451   C420    1.481   1_455 S
C453   C421    1.404   1_556 A
C454   C458    1.412   .     A
C454   C484    1.410   .     A
C454   C485    1.500   .     S
C455   H472    1.082   .     S
C455   C484    1.399   .     A
C455   C487    1.402   .     A
H456   C476    1.082   .     S
C457   C458    1.402   .     A
C457   H474    1.084   .     S
C457   C487    1.404   .     A
C458   H473    1.080   .     S
N459   H468    1.043   .     S
N459   C477    1.373   .     S
N459   C478    1.473   .     S
N460   H475    1.043   .     S
N460   C485    1.373   .     S
N460   C486    1.467   .     S
O461   C477    1.221   .     D
O462   C485    1.223   .     D
H463   C478    1.110   .     S
H464   C478    1.109   .     S
H465   C481    1.083   .     S
H466   C482    1.082   .     S
H467   C483    1.083   .     S
H469   C484    1.083   .     S
H470   C486    1.109   .     S
H471   C486    1.110   .     S
C476   C480    1.405   .     A
C476   C481    1.397   .     A
C477   C480    1.492   .     S
C479   C481    1.404   .     A
C479   C483    1.405   .     A
C479   C487    1.487   .     S
C480   C482    1.410   .     A
C482   C483    1.404   .     A
