data_lcy+N205+E28
_audit_creation_date              2025-01-21
_audit_creation_method            'Materials Studio'
_symmetry_space_group_name_H-M    'P1'
_symmetry_Int_Tables_number       1
_symmetry_cell_setting            triclinic
loop_
_symmetry_equiv_pos_as_xyz
  x,y,z
_cell_length_a                    34.6456
_cell_length_b                    33.2647
_cell_length_c                    34.0104
_cell_angle_alpha                 109.6880
_cell_angle_beta                  93.3061
_cell_angle_gamma                 93.0126
loop_
_atom_site_label
_atom_site_type_symbol
_atom_site_fract_x
_atom_site_fract_y
_atom_site_fract_z
_atom_site_U_iso_or_equiv
_atom_site_adp_type
_atom_site_occupancy
Y0     Y     0.15240   0.60253   0.89849   0.00000  Uiso   1.00
Y1     Y     0.09271   0.68834   0.84933   0.00000  Uiso   1.00
C2     C     0.03031   0.69667   0.89479   0.00000  Uiso   1.00
C3     C     0.08126   0.59181   0.83959   0.00000  Uiso   1.00
C4     C     0.16924   0.57186   0.96088   0.00000  Uiso   1.00
C5     C     0.19052   0.57304   0.82872   0.00000  Uiso   1.00
C6     C     0.16702   0.69655   0.91027   0.00000  Uiso   1.00
C7     C     0.09102   0.73763   0.80033   0.00000  Uiso   1.00
O8     O     0.06471   0.70607   0.91126   0.00000  Uiso   1.00
O9     O     0.02869   0.68404   0.85546   0.00000  Uiso   1.00
O10    O     0.09020   0.60478   0.87879   0.00000  Uiso   1.00
O11    O     0.08812   0.61645   0.81861   0.00000  Uiso   1.00
O12    O     0.18669   0.60467   0.95752   0.00000  Uiso   1.00
O13    O     0.14292   0.55480   0.93177   0.00000  Uiso   1.00
O14    O     0.16172   0.55291   0.83638   0.00000  Uiso   1.00
O15    O     0.20028   0.60821   0.85770   0.00000  Uiso   1.00
O16    O     0.15371   0.70664   0.87959   0.00000  Uiso   1.00
O17    O     0.14595   0.67266   0.92377   0.00000  Uiso   1.00
O18    O     0.08555   0.69731   0.78611   0.00000  Uiso   1.00
O19    O     0.09774   0.75202   0.83957   0.00000  Uiso   1.00
Y20    Y     0.57458   0.84251   0.16992   0.00000  Uiso   1.00
Y21    Y     0.63976   0.88482   0.07941   0.00000  Uiso   1.00
C22    C     0.69082   0.82486   0.07322   0.00000  Uiso   1.00
C23    C     0.64441   0.90338   0.17470   0.00000  Uiso   1.00
C24    C     0.56647   0.77990   0.20334   0.00000  Uiso   1.00
C25    C     0.53296   0.91152   0.19842   0.00000  Uiso   1.00
C26    C     0.55790   0.83784   0.07951   0.00000  Uiso   1.00
C27    C     0.65498   0.92810   0.02678   0.00000  Uiso   1.00
O28    O     0.65733   0.81669   0.05442   0.00000  Uiso   1.00
O29    O     0.69687   0.86333   0.09663   0.00000  Uiso   1.00
O30    O     0.63522   0.86339   0.16218   0.00000  Uiso   1.00
O31    O     0.64357   0.92288   0.14831   0.00000  Uiso   1.00
O32    O     0.54654   0.78025   0.17116   0.00000  Uiso   1.00
O33    O     0.59081   0.81198   0.21812   0.00000  Uiso   1.00
O34    O     0.56490   0.90743   0.21592   0.00000  Uiso   1.00
O35    O     0.52179   0.87908   0.16684   0.00000  Uiso   1.00
O36    O     0.57540   0.86723   0.06966   0.00000  Uiso   1.00
O37    O     0.57645   0.81876   0.10029   0.00000  Uiso   1.00
O38    O     0.66333   0.94331   0.06582   0.00000  Uiso   1.00
O39    O     0.63844   0.89097   0.01537   0.00000  Uiso   1.00
Y40    Y     0.90684   0.15138   0.56325   0.00000  Uiso   1.00
Y41    Y     0.86644   0.08209   0.66571   0.00000  Uiso   1.00
C42    C     0.92560   0.03074   0.65672   0.00000  Uiso   1.00
C43    C     0.85356   0.07778   0.57093   0.00000  Uiso   1.00
C44    C     0.97925   0.16269   0.54186   0.00000  Uiso   1.00
C45    C     0.84713   0.18824   0.53902   0.00000  Uiso   1.00
C46    C     0.89605   0.17108   0.66383   0.00000  Uiso   1.00
C47    C     0.81961   0.07087   0.72278   0.00000  Uiso   1.00
O48    O     0.92863   0.06987   0.67876   0.00000  Uiso   1.00
O49    O     0.89254   0.01884   0.63771   0.00000  Uiso   1.00
O50    O     0.88922   0.09106   0.57599   0.00000  Uiso   1.00
O51    O     0.83683   0.07234   0.60146   0.00000  Uiso   1.00
O52    O     0.96624   0.18513   0.57555   0.00000  Uiso   1.00
O53    O     0.95485   0.13298   0.51906   0.00000  Uiso   1.00
O54    O     0.86945   0.20645   0.57159   0.00000  Uiso   1.00
O55    O     0.85725   0.15185   0.51735   0.00000  Uiso   1.00
O56    O     0.88284   0.15338   0.68843   0.00000  Uiso   1.00
O57    O     0.89841   0.14665   0.62646   0.00000  Uiso   1.00
O58    O     0.81208   0.05383   0.68377   0.00000  Uiso   1.00
O59    O     0.85085   0.09415   0.73199   0.00000  Uiso   1.00
Y60    Y     0.40944   0.34958   0.43506   0.00000  Uiso   1.00
Y61    Y     0.35970   0.41145   0.33952   0.00000  Uiso   1.00
C62    C     0.42585   0.46024   0.34449   0.00000  Uiso   1.00
C63    C     0.35896   0.42261   0.43741   0.00000  Uiso   1.00
C64    C     0.48249   0.33644   0.45774   0.00000  Uiso   1.00
C65    C     0.34777   0.30903   0.45464   0.00000  Uiso   1.00
C66    C     0.38701   0.32487   0.33663   0.00000  Uiso   1.00
C67    C     0.30711   0.42820   0.28617   0.00000  Uiso   1.00
O68    O     0.39894   0.47212   0.36806   0.00000  Uiso   1.00
O69    O     0.41985   0.42191   0.32055   0.00000  Uiso   1.00
O70    O     0.39464   0.41510   0.43681   0.00000  Uiso   1.00
O71    O     0.33859   0.41864   0.40344   0.00000  Uiso   1.00
O72    O     0.46481   0.31719   0.42253   0.00000  Uiso   1.00
O73    O     0.46269   0.36398   0.48175   0.00000  Uiso   1.00
O74    O     0.36149   0.29671   0.41946   0.00000  Uiso   1.00
O75    O     0.36688   0.34154   0.48042   0.00000  Uiso   1.00
O76    O     0.36625   0.34012   0.31414   0.00000  Uiso   1.00
O77    O     0.40270   0.35208   0.37046   0.00000  Uiso   1.00
O78    O     0.31226   0.44981   0.32462   0.00000  Uiso   1.00
O79    O     0.32784   0.39700   0.27594   0.00000  Uiso   1.00
C80    C     0.43757   0.80008   0.03646   0.00000  Uiso   1.00
C81    C     0.45685   0.78162   0.06291   0.00000  Uiso   1.00
C82    C     0.49574   0.79429   0.07752   0.00000  Uiso   1.00
C83    C     0.51608   0.82602   0.06638   0.00000  Uiso   1.00
C84    C     0.49646   0.84524   0.04087   0.00000  Uiso   1.00
C85    C     0.45777   0.83238   0.02603   0.00000  Uiso   1.00
C86    C     0.39711   0.78501   0.01871   0.00000  Uiso   1.00
N87    N     0.38079   0.79847   0.98851   0.00000  Uiso   1.00
N88    N     0.34485   0.78434   0.97170   0.00000  Uiso   1.00
C89    C     0.32358   0.75617   0.98439   0.00000  Uiso   1.00
N90    N     0.33983   0.74273   0.01467   0.00000  Uiso   1.00
N91    N     0.37588   0.75676   0.03140   0.00000  Uiso   1.00
C92    C     0.28359   0.74042   0.96533   0.00000  Uiso   1.00
C93    C     0.25922   0.71646   0.98230   0.00000  Uiso   1.00
C94    C     0.22139   0.70231   0.96448   0.00000  Uiso   1.00
C95    C     0.20718   0.71131   0.92903   0.00000  Uiso   1.00
C96    C     0.23151   0.73532   0.91216   0.00000  Uiso   1.00
C97    C     0.26920   0.74976   0.93012   0.00000  Uiso   1.00
H98    H     0.44215   0.75672   0.07163   0.00000  Uiso   1.00
H99    H     0.51003   0.77865   0.09689   0.00000  Uiso   1.00
H100   H     0.51128   0.86961   0.03151   0.00000  Uiso   1.00
H101   H     0.44386   0.84752   1.00594   0.00000  Uiso   1.00
H102   H     0.26919   0.70899   0.00963   0.00000  Uiso   1.00
H103   H     0.20311   0.68485   0.97889   0.00000  Uiso   1.00
H104   H     0.22140   0.74318   0.88514   0.00000  Uiso   1.00
H105   H     0.28713   0.76815   0.91623   0.00000  Uiso   1.00
C106   C     0.41402   0.19202   0.29248   0.00000  Uiso   1.00
C107   C     0.39598   0.20999   0.26487   0.00000  Uiso   1.00
C108   C     0.38564   0.25257   0.27959   0.00000  Uiso   1.00
C109   C     0.39325   0.27812   0.32216   0.00000  Uiso   1.00
C110   C     0.40960   0.25902   0.34931   0.00000  Uiso   1.00
C111   C     0.41996   0.21699   0.33501   0.00000  Uiso   1.00
C112   C     0.42827   0.14844   0.27780   0.00000  Uiso   1.00
N113   N     0.44999   0.13501   0.30484   0.00000  Uiso   1.00
N114   N     0.46473   0.09707   0.29215   0.00000  Uiso   1.00
C115   C     0.45836   0.07059   0.25179   0.00000  Uiso   1.00
N116   N     0.43625   0.08364   0.22461   0.00000  Uiso   1.00
N117   N     0.42158   0.12186   0.23733   0.00000  Uiso   1.00
C118   C     0.47625   0.02902   0.23809   0.00000  Uiso   1.00
C119   C     0.46444  -0.00290   0.19942   0.00000  Uiso   1.00
C120   C     0.48209   0.95828   0.18688   0.00000  Uiso   1.00
C121   C     0.51213   0.95090   0.21260   0.00000  Uiso   1.00
C122   C     0.52402   0.98283   0.25110   0.00000  Uiso   1.00
C123   C     0.50615   0.02128   0.26379   0.00000  Uiso   1.00
H124   H     0.39087   0.19161   0.23181   0.00000  Uiso   1.00
H125   H     0.37299   0.26591   0.25733   0.00000  Uiso   1.00
H126   H     0.41459   0.27613   0.38181   0.00000  Uiso   1.00
H127   H     0.43333   0.20439   0.35752   0.00000  Uiso   1.00
H128   H     0.44167   0.00215   0.17883   0.00000  Uiso   1.00
H129   H     0.47290   0.93446   0.15668   0.00000  Uiso   1.00
H130   H     0.54747   0.97827   0.27129   0.00000  Uiso   1.00
H131   H     0.51636   0.04531   0.29352   0.00000  Uiso   1.00
C132   C     0.73874   0.23655   0.51657   0.00000  Uiso   1.00
C133   C     0.75116   0.19971   0.48679   0.00000  Uiso   1.00
C134   C     0.78710   0.18477   0.49325   0.00000  Uiso   1.00
C135   C     0.81134   0.20641   0.52953   0.00000  Uiso   1.00
C136   C     0.79925   0.24353   0.55903   0.00000  Uiso   1.00
C137   C     0.76322   0.25830   0.55274   0.00000  Uiso   1.00
C138   C     0.70065   0.25232   0.50957   0.00000  Uiso   1.00
N139   N     0.68656   0.28535   0.53969   0.00000  Uiso   1.00
N140   N     0.65277   0.30017   0.53264   0.00000  Uiso   1.00
C141   C     0.63182   0.28262   0.49510   0.00000  Uiso   1.00
N142   N     0.64583   0.24943   0.46522   0.00000  Uiso   1.00
N143   N     0.67946   0.23458   0.47228   0.00000  Uiso   1.00
C144   C     0.59441   0.29881   0.48639   0.00000  Uiso   1.00
C145   C     0.57588   0.28260   0.44582   0.00000  Uiso   1.00
C146   C     0.53998   0.29572   0.43706   0.00000  Uiso   1.00
C147   C     0.52161   0.32576   0.46842   0.00000  Uiso   1.00
C148   C     0.54025   0.34299   0.50895   0.00000  Uiso   1.00
C149   C     0.57652   0.32964   0.51787   0.00000  Uiso   1.00
H150   H     0.73295   0.18206   0.45863   0.00000  Uiso   1.00
H151   H     0.79559   0.15588   0.47026   0.00000  Uiso   1.00
H152   H     0.81722   0.26057   0.58757   0.00000  Uiso   1.00
H153   H     0.75454   0.28670   0.57630   0.00000  Uiso   1.00
H154   H     0.58891   0.25935   0.42062   0.00000  Uiso   1.00
H155   H     0.52634   0.28175   0.40553   0.00000  Uiso   1.00
H156   H     0.52658   0.36604   0.53375   0.00000  Uiso   1.00
H157   H     0.59023   0.34291   0.54943   0.00000  Uiso   1.00
C158   C     0.75322   0.04529   0.81565   0.00000  Uiso   1.00
C159   C     0.78357   0.07781   0.82739   0.00000  Uiso   1.00
C160   C     0.80457   0.08672   0.79708   0.00000  Uiso   1.00
C161   C     0.79533   0.06375   0.75438   0.00000  Uiso   1.00
C162   C     0.76400   1.03257   0.74241   0.00000  Uiso   1.00
C163   C     0.74327   1.02321   0.77274   0.00000  Uiso   1.00
C164   C     0.73378   1.03275   0.84793   0.00000  Uiso   1.00
N165   N     0.70614   0.99956   0.83671   0.00000  Uiso   1.00
N166   N     0.69082   0.98614   0.86553   0.00000  Uiso   1.00
C167   C     0.70246   1.00526   0.90683   0.00000  Uiso   1.00
N168   N     0.72969   0.03887   0.91812   0.00000  Uiso   1.00
N169   N     0.74500   0.05232   0.88929   0.00000  Uiso   1.00
C170   C     0.68771   0.98791   0.93842   0.00000  Uiso   1.00
C171   C     0.70094   1.00639   0.98102   0.00000  Uiso   1.00
C172   C     0.68926   0.98783   0.01015   0.00000  Uiso   1.00
C173   C     0.66444   0.95026  -0.00282   0.00000  Uiso   1.00
C174   C     0.65023   0.93256   0.95497   0.00000  Uiso   1.00
C175   C     0.66163   0.95123   0.92593   0.00000  Uiso   1.00
H176   H     0.79193   0.09561   0.86007   0.00000  Uiso   1.00
H177   H     0.82860   0.11099   0.80713   0.00000  Uiso   1.00
H178   H     0.75632   1.01443   0.70965   0.00000  Uiso   1.00
H179   H     0.72016   0.99787   0.76253   0.00000  Uiso   1.00
H180   H     0.72110   0.03457   0.99175   0.00000  Uiso   1.00
H181   H     0.70054   0.00212   0.04256   0.00000  Uiso   1.00
H182   H     0.63076   0.90378   0.94420   0.00000  Uiso   1.00
H183   H     0.65075   0.93617   0.89347   0.00000  Uiso   1.00
C184   C     0.78724   0.04558   0.45286   0.00000  Uiso   1.00
C185   C     0.77029   0.06683   0.49006   0.00000  Uiso   1.00
C186   C     0.79207   0.07837   0.52873   0.00000  Uiso   1.00
C187   C     0.83137   0.07030   0.53054   0.00000  Uiso   1.00
C188   C     0.84888   1.05159   0.49313   0.00000  Uiso   1.00
C189   C     0.82687   1.03876   0.45469   0.00000  Uiso   1.00
C190   C     0.76331   1.02662   0.41279   0.00000  Uiso   1.00
N191   N     0.77169   0.98849   0.38529   0.00000  Uiso   1.00
N192   N     0.74980   0.97003   0.34959   0.00000  Uiso   1.00
C193   C     0.71886   0.98912   0.33972   0.00000  Uiso   1.00
N194   N     0.71053   0.02753   0.36702   0.00000  Uiso   1.00
N195   N     0.73219   0.04577   0.40317   0.00000  Uiso   1.00
C196   C     0.69535   0.96803   0.29967   0.00000  Uiso   1.00
C197   C     0.67924   0.99184   0.27655   0.00000  Uiso   1.00
C198   C     0.66134   0.97096   0.23618   0.00000  Uiso   1.00
C199   C     0.65845   0.92601   0.21894   0.00000  Uiso   1.00
C200   C     0.67288   0.90239   0.24310   0.00000  Uiso   1.00
C201   C     0.69140   0.92317   0.28284   0.00000  Uiso   1.00
H202   H     0.73981   0.07252   0.48945   0.00000  Uiso   1.00
H203   H     0.77816   0.09298   0.55726   0.00000  Uiso   1.00
H204   H     0.87919   1.04506   0.49373   0.00000  Uiso   1.00
H205   H     0.84062   1.02260   0.42636   0.00000  Uiso   1.00
H206   H     0.68208   0.02650   0.28883   0.00000  Uiso   1.00
H207   H     0.65079   0.98988   0.21802   0.00000  Uiso   1.00
H208   H     0.67161   0.86775   0.23050   0.00000  Uiso   1.00
H209   H     0.70344   0.90409   0.30011   0.00000  Uiso   1.00
C210   C     0.30812   0.46631   0.55573   0.00000  Uiso   1.00
C211   C     0.28727   0.46582   0.51898   0.00000  Uiso   1.00
C212   C     0.30324   0.45023   0.48033   0.00000  Uiso   1.00
C213   C     0.34083   0.43596   0.47786   0.00000  Uiso   1.00
C214   C     0.36188   0.43735   0.51495   0.00000  Uiso   1.00
C215   C     0.34545   0.45170   0.55337   0.00000  Uiso   1.00
C216   C     0.29117   0.48231   0.59646   0.00000  Uiso   1.00
N217   N     0.29606   0.46216   0.62485   0.00000  Uiso   1.00
N218   N     0.28053   0.47638   0.66157   0.00000  Uiso   1.00
C219   C     0.26008   0.51168   0.67145   0.00000  Uiso   1.00
N220   N     0.25546   0.53208   0.64320   0.00000  Uiso   1.00
N221   N     0.27050   0.51747   0.60622   0.00000  Uiso   1.00
C222   C     0.24304   0.52744   0.71214   0.00000  Uiso   1.00
C223   C     0.24426   0.57152   0.73464   0.00000  Uiso   1.00
C224   C     0.22823   0.58637   0.77332   0.00000  Uiso   1.00
C225   C     0.20967   0.55742   0.78938   0.00000  Uiso   1.00
C226   C     0.20783   0.51340   0.76650   0.00000  Uiso   1.00
C227   C     0.22501   0.49847   0.72854   0.00000  Uiso   1.00
H228   H     0.25844   0.47706   0.52010   0.00000  Uiso   1.00
H229   H     0.28644   0.45024   0.45254   0.00000  Uiso   1.00
H230   H     0.39121   0.42753   0.51436   0.00000  Uiso   1.00
H231   H     0.36237   0.45250   0.58140   0.00000  Uiso   1.00
H232   H     0.25796   0.59440   0.72249   0.00000  Uiso   1.00
H233   H     0.22948   0.62049   0.79018   0.00000  Uiso   1.00
H234   H     0.19328   0.49054   0.77811   0.00000  Uiso   1.00
H235   H     0.22335   0.46437   0.71147   0.00000  Uiso   1.00
C236   C     0.19661   0.52583   0.06231   0.00000  Uiso   1.00
C237   C     0.17322   0.49993   0.02666   0.00000  Uiso   1.00
C238   C     0.16389   0.51500   0.99376   0.00000  Uiso   1.00
C239   C     0.17847   0.55580   0.99554   0.00000  Uiso   1.00
C240   C     0.20203   0.58152   0.03096   0.00000  Uiso   1.00
C241   C     0.21085   0.56679   0.06405   0.00000  Uiso   1.00
C242   C     0.20681   0.51027   0.09727   0.00000  Uiso   1.00
N243   N     0.22103   0.53817   0.13530   0.00000  Uiso   1.00
N244   N     0.23182   0.52421   0.16632   0.00000  Uiso   1.00
C245   C     0.22903   0.48172   0.16063   0.00000  Uiso   1.00
N246   N     0.21457   0.45380   0.12268   0.00000  Uiso   1.00
N247   N     0.20351   0.46780   0.09172   0.00000  Uiso   1.00
C248   C     0.24408   0.46617   0.19409   0.00000  Uiso   1.00
C249   C     0.25459   0.42386   0.18428   0.00000  Uiso   1.00
C250   C     0.27345   0.41076   0.21484   0.00000  Uiso   1.00
C251   C     0.28177   0.43958   0.25584   0.00000  Uiso   1.00
C252   C     0.26924   0.48102   0.26629   0.00000  Uiso   1.00
C253   C     0.25081   0.49432   0.23566   0.00000  Uiso   1.00
H254   H     0.16186   0.46819   1.02431   0.00000  Uiso   1.00
H255   H     0.14561   0.49462   0.96676   0.00000  Uiso   1.00
H256   H     0.21352   0.61320   0.03320   0.00000  Uiso   1.00
H257   H     0.22922   0.58736   0.09085   0.00000  Uiso   1.00
H258   H     0.24997   0.40146   0.15254   0.00000  Uiso   1.00
H259   H     0.28283   0.37859   0.20604   0.00000  Uiso   1.00
H260   H     0.27552   0.50387   0.29763   0.00000  Uiso   1.00
H261   H     0.24293   0.52707   0.24426   0.00000  Uiso   1.00
C262   C     0.24161   0.25246   0.47934   0.00000  Uiso   1.00
C263   C     0.25415   0.23979   0.43866   0.00000  Uiso   1.00
C264   C     0.28920   0.25749   0.43094   0.00000  Uiso   1.00
C265   C     0.31224   0.28849   0.46361   0.00000  Uiso   1.00
C266   C     0.29993   0.30112   0.50420   0.00000  Uiso   1.00
C267   C     0.26506   0.28323   0.51202   0.00000  Uiso   1.00
C268   C     0.20377   0.23515   0.48771   0.00000  Uiso   1.00
N269   N     0.19186   0.24850   0.52705   0.00000  Uiso   1.00
N270   N     0.15733   0.23475   0.53473   0.00000  Uiso   1.00
C271   C     0.13306   0.20694   0.50349   0.00000  Uiso   1.00
N272   N     0.14511   0.19297   0.46412   0.00000  Uiso   1.00
N273   N     0.17975   0.20685   0.45639   0.00000  Uiso   1.00
C274   C     0.09379   0.19403   0.51247   0.00000  Uiso   1.00
C275   C     0.07033   0.15968   0.48358   0.00000  Uiso   1.00
C276   C     0.03308   0.14863   0.49290   0.00000  Uiso   1.00
C277   C     1.01870   0.17203   0.53109   0.00000  Uiso   1.00
C278   C     0.04212   0.20638   0.55959   0.00000  Uiso   1.00
C279   C     0.07911   0.21709   0.55053   0.00000  Uiso   1.00
H280   H     0.23672   0.21661   0.41265   0.00000  Uiso   1.00
H281   H     0.29782   0.24770   0.39917   0.00000  Uiso   1.00
H282   H     0.31704   0.32521   0.52981   0.00000  Uiso   1.00
H283   H     0.25627   0.29402   0.54370   0.00000  Uiso   1.00
H284   H     0.08075   0.14140   0.45389   0.00000  Uiso   1.00
H285   H     1.01550   0.12216   0.47024   0.00000  Uiso   1.00
H286   H     0.03168   0.22549   0.58900   0.00000  Uiso   1.00
H287   H     0.09597   0.24409   0.57328   0.00000  Uiso   1.00
C288   C     1.00742   0.94260   0.66804   0.00000  Uiso   1.00
C289   C     1.01463   0.98672   0.69023   0.00000  Uiso   1.00
C290   C     0.98936   0.01584   0.68418   0.00000  Uiso   1.00
C291   C     0.95619   0.00142   0.65620   0.00000  Uiso   1.00
C292   C     0.95037   0.95782   0.63181   0.00000  Uiso   1.00
C293   C     0.97594   0.92870   0.63746   0.00000  Uiso   1.00
C294   C     1.02953   0.91114   0.68033   0.00000  Uiso   1.00
N295   N     1.02220   0.86840   0.65971   0.00000  Uiso   1.00
N296   N     1.03782   0.84002   0.67448   0.00000  Uiso   1.00
C297   C     0.06134   0.85323   0.71053   0.00000  Uiso   1.00
N298   N     0.06954   0.89594   0.73042   0.00000  Uiso   1.00
N299   N     1.05398   0.92428   0.71565   0.00000  Uiso   1.00
C300   C     0.07402   0.82223   0.73047   0.00000  Uiso   1.00
C301   C     0.09460   0.83694   0.77014   0.00000  Uiso   1.00
C302   C     0.10140   0.80897   0.79207   0.00000  Uiso   1.00
C303   C     0.08825   0.76553   0.77464   0.00000  Uiso   1.00
C304   C     0.06984   0.75012   0.73397   0.00000  Uiso   1.00
C305   C     0.06255   0.77827   0.71218   0.00000  Uiso   1.00
H306   H     1.03866   0.99868   0.71390   0.00000  Uiso   1.00
H307   H     0.99455   0.04933   0.70325   0.00000  Uiso   1.00
H308   H     0.92502   0.94586   0.60992   0.00000  Uiso   1.00
H309   H     0.96972   0.89503   0.61955   0.00000  Uiso   1.00
H310   H     0.10412   0.87047   0.78511   0.00000  Uiso   1.00
H311   H     0.11600   0.82163   0.82325   0.00000  Uiso   1.00
H312   H     0.05943   0.71674   0.71983   0.00000  Uiso   1.00
H313   H     0.04661   0.76584   0.68171   0.00000  Uiso   1.00
C314   C     0.02207   0.46683   0.78226   0.00000  Uiso   1.00
C315   C     0.03089   0.49222   0.75773   0.00000  Uiso   1.00
C316   C     0.05071   0.53269   0.77606   0.00000  Uiso   1.00
C317   C     0.06254   0.54815   0.81904   0.00000  Uiso   1.00
C318   C     0.05453   0.52220   0.84318   0.00000  Uiso   1.00
C319   C     0.03450   0.48213   0.82505   0.00000  Uiso   1.00
C320   C     0.99975   0.42475   0.76388   0.00000  Uiso   1.00
N321   N     0.98616   0.40403   0.78913   0.00000  Uiso   1.00
N322   N     0.96633   0.36602   0.77303   0.00000  Uiso   1.00
C323   C     0.95923   0.34708   0.73098   0.00000  Uiso   1.00
N324   N     0.97265   0.36786   0.70566   0.00000  Uiso   1.00
N325   N     0.99240   0.40600   0.72180   0.00000  Uiso   1.00
C326   C     0.93931   0.30366   0.71317   0.00000  Uiso   1.00
C327   C     0.93839   0.28086   0.67013   0.00000  Uiso   1.00
C328   C     0.92279   0.23851   0.65390   0.00000  Uiso   1.00
C329   C     0.90801   0.21763   0.67986   0.00000  Uiso   1.00
C330   C     0.90752   0.24105   0.72282   0.00000  Uiso   1.00
C331   C     0.92276   0.28366   0.73928   0.00000  Uiso   1.00
H332   H     0.02169   0.48131   0.72462   0.00000  Uiso   1.00
H333   H     0.05620   0.55212   0.75679   0.00000  Uiso   1.00
H334   H     0.06313   0.53308   0.87641   0.00000  Uiso   1.00
H335   H     0.02838   0.46333   0.84481   0.00000  Uiso   1.00
H336   H     0.95085   0.29520   0.64904   0.00000  Uiso   1.00
H337   H     0.92333   0.22199   0.62126   0.00000  Uiso   1.00
H338   H     0.89653   0.22610   0.74411   0.00000  Uiso   1.00
H339   H     0.92246   0.30052   0.77260   0.00000  Uiso   1.00
C340   C     0.78725   0.75016   0.03875   0.00000  Uiso   1.00
C341   C     0.78888   0.78288   0.07798   0.00000  Uiso   1.00
C342   C     0.75622   0.80511   0.09117   0.00000  Uiso   1.00
C343   C     0.72124   0.79443   0.06571   0.00000  Uiso   1.00
C344   C     0.71830   0.75844   0.02906   0.00000  Uiso   1.00
C345   C     0.75115   0.73672   0.01543   0.00000  Uiso   1.00
C346   C     0.82347   0.73448   0.01990   0.00000  Uiso   1.00
N347   N     0.82278   0.71147   0.97843   0.00000  Uiso   1.00
N348   N     0.85559   0.70203   0.96001   0.00000  Uiso   1.00
C349   C     0.89057   0.71527   0.98217   0.00000  Uiso   1.00
N350   N     0.89132   0.73758   0.02384   0.00000  Uiso   1.00
N351   N     0.85845   0.74709   0.04227   0.00000  Uiso   1.00
C352   C     0.92687   0.70820   0.96055   0.00000  Uiso   1.00
C353   C     0.96351   0.71954   0.98309   0.00000  Uiso   1.00
C354   C     0.99747   0.71513   0.96197   0.00000  Uiso   1.00
C355   C    -0.00475   0.69989   0.91801   0.00000  Uiso   1.00
C356   C     0.95873   0.68784   0.89562   0.00000  Uiso   1.00
C357   C     0.92501   0.69182   0.91660   0.00000  Uiso   1.00
H358   H     0.81600   0.79344   0.09715   0.00000  Uiso   1.00
H359   H     0.75905   0.83243   0.11994   0.00000  Uiso   1.00
H360   H     0.69148   0.74931   0.00919   0.00000  Uiso   1.00
H361   H     0.74871   0.71120   0.98536   0.00000  Uiso   1.00
H362   H     0.96598   0.73214   0.01699   0.00000  Uiso   1.00
H363   H     0.02533   0.72400   0.97995   0.00000  Uiso   1.00
H364   H    -0.04393   0.67565   0.86168   0.00000  Uiso   1.00
H365   H     0.89742   0.68278   0.89813   0.00000  Uiso   1.00
C366   C     0.54955   0.68024   0.25622   0.00000  Uiso   1.00
C367   C     0.57004   0.71929   0.27999   0.00000  Uiso   1.00
C368   C     0.57640   0.75151   0.26259   0.00000  Uiso   1.00
C369   C     0.56154   0.74557   0.22152   0.00000  Uiso   1.00
C370   C     0.54095   0.70662   0.19794   0.00000  Uiso   1.00
C371   C     0.53532   0.67418   0.21495   0.00000  Uiso   1.00
C372   C     0.54164   0.64629   0.27436   0.00000  Uiso   1.00
N373   N     0.53431   0.60493   0.24892   0.00000  Uiso   1.00
N374   N     0.52429   0.57455   0.26453   0.00000  Uiso   1.00
C375   C     0.52098   0.58420   0.30621   0.00000  Uiso   1.00
N376   N     0.52889   0.62551   0.33184   0.00000  Uiso   1.00
N377   N     0.53928   0.65592   0.31624   0.00000  Uiso   1.00
C378   C     0.50453   0.55118   0.32204   0.00000  Uiso   1.00
C379   C     0.48507   0.56298   0.35891   0.00000  Uiso   1.00
C380   C     0.46174   0.53240   0.36838   0.00000  Uiso   1.00
C381   C     0.45798   0.48957   0.34147   0.00000  Uiso   1.00
C382   C     0.48035   0.47714   0.30690   0.00000  Uiso   1.00
C383   C     0.50344   0.50766   0.29726   0.00000  Uiso   1.00
H384   H     0.58124   0.72479   0.31191   0.00000  Uiso   1.00
H385   H     0.59240   0.78123   0.28143   0.00000  Uiso   1.00
H386   H     0.52918   0.70115   0.16623   0.00000  Uiso   1.00
H387   H     0.51903   0.64460   0.19603   0.00000  Uiso   1.00
H388   H     0.48531   0.59627   0.37863   0.00000  Uiso   1.00
H389   H     0.44471   0.54280   0.39523   0.00000  Uiso   1.00
H390   H     0.47779   0.44439   0.28552   0.00000  Uiso   1.00
H391   H     0.51853   0.49755   0.26892   0.00000  Uiso   1.00
loop_
_geom_bond_atom_site_label_1
_geom_bond_atom_site_label_2
_geom_bond_distance
_geom_bond_site_symmetry_2
_ccdc_geom_bond_type
Y0     O10     2.232   .     S
Y0     O12     2.251   .     S
Y0     O13     2.260   .     S
Y0     O14     2.253   .     S
Y0     O15     2.263   .     S
Y0     O17     2.226   .     S
Y1     O8      2.277   .     S
Y1     O9      2.241   .     S
Y1     O11     2.257   .     S
Y1     O16     2.256   .     S
Y1     O18     2.270   .     S
Y1     O19     2.252   .     S
C2     O8      1.264   .     A
C2     O9      1.257   .     A
C2     C355    1.476   .     S
C3     O10     1.269   .     A
C3     O11     1.277   .     A
C3     C317    1.478   .     S
C4     O12     1.262   .     A
C4     O13     1.263   .     A
C4     C239    1.475   .     S
C5     O14     1.261   .     A
C5     O15     1.264   .     A
C5     C225    1.473   .     S
C6     O16     1.269   .     A
C6     O17     1.264   .     A
C6     C95     1.483   .     S
C7     O18     1.263   .     A
C7     O19     1.260   .     A
C7     C303    1.477   .     S
Y20    O30     2.236   .     S
Y20    O32     2.256   .     S
Y20    O33     2.261   .     S
Y20    O34     2.255   .     S
Y20    O35     2.266   .     S
Y20    O37     2.236   .     S
Y21    O28     2.266   .     S
Y21    O29     2.251   .     S
Y21    O31     2.249   .     S
Y21    O36     2.252   .     S
Y21    O38     2.269   .     S
Y21    O39     2.254   .     S
C22    O28     1.262   .     A
C22    O29     1.258   .     A
C22    C343    1.473   .     S
C23    O30     1.269   .     A
C23    O31     1.272   .     A
C23    C199    1.477   .     S
C24    O32     1.264   .     A
C24    O33     1.264   .     A
C24    C369    1.478   .     S
C25    O34     1.261   .     A
C25    O35     1.263   .     A
C25    C121    1.478   .     S
C26    O36     1.272   .     A
C26    O37     1.268   .     A
C26    C83     1.483   .     S
C27    O38     1.261   .     A
C27    O39     1.257   .     A
C27    C173    1.476   .     S
Y40    O50     2.253   .     S
Y40    O52     2.239   .     S
Y40    O53     2.275   .     S
Y40    O54     2.248   .     S
Y40    O55     2.258   .     S
Y40    O57     2.242   .     S
Y41    O48     2.260   .     S
Y41    O49     2.258   .     S
Y41    O51     2.272   .     S
Y41    O56     2.262   .     S
Y41    O58     2.268   .     S
Y41    O59     2.255   .     S
C42    O48     1.259   .     A
C42    O49     1.258   .     A
C42    C291    1.474   .     S
C43    O50     1.272   .     A
C43    O51     1.278   .     A
C43    C187    1.472   .     S
C44    O52     1.262   .     A
C44    O53     1.270   .     A
C44    C277    1.479   .     S
C45    O54     1.262   .     A
C45    O55     1.267   .     A
C45    C135    1.473   .     S
C46    O56     1.266   .     A
C46    O57     1.267   .     A
C46    C329    1.485   .     S
C47    O58     1.260   .     A
C47    O59     1.257   .     A
C47    C161    1.474   .     S
Y60    O70     2.247   .     S
Y60    O72     2.241   .     S
Y60    O73     2.283   .     S
Y60    O74     2.258   .     S
Y60    O75     2.264   .     S
Y60    O77     2.226   .     S
Y61    O68     2.259   .     S
Y61    O69     2.260   .     S
Y61    O71     2.274   .     S
Y61    O76     2.264   .     S
Y61    O78     2.269   .     S
Y61    O79     2.257   .     S
C62    O68     1.257   .     A
C62    O69     1.259   .     A
C62    C381    1.472   .     S
C63    O70     1.274   .     A
C63    O71     1.282   .     A
C63    C213    1.484   .     S
C64    O72     1.256   .     A
C64    O73     1.266   .     A
C64    C147    1.475   .     S
C65    O74     1.257   .     A
C65    O75     1.263   .     A
C65    C265    1.474   .     S
C66    O76     1.263   .     A
C66    O77     1.270   .     A
C66    C109    1.496   .     S
C67    O78     1.259   .     A
C67    O79     1.256   .     A
C67    C251    1.474   .     S
C80    C81     1.406   .     A
C80    C85     1.406   .     A
C80    C86     1.485   .     S
C81    C82     1.401   .     A
C81    H98     1.083   .     S
C82    C83     1.406   .     A
C82    H99     1.082   .     S
C83    C84     1.405   .     A
C84    C85     1.397   .     A
C84    H100    1.082   .     S
C85    H101    1.083   1_554 S
C86    N91     1.359   .     A
C86    N87     1.358   1_554 A
N87    N88     1.332   .     A
N87    C86     1.358   1_556 A
N88    C89     1.358   .     A
C89    C92     1.485   .     S
C89    N90     1.359   1_556 A
N90    N91     1.334   .     A
N90    C89     1.359   1_554 A
C92    C93     1.406   .     A
C92    C97     1.406   .     A
C93    C94     1.399   .     A
C93    H102    1.083   1_556 S
C94    C95     1.406   .     A
C94    H103    1.081   .     S
C95    C96     1.404   .     A
C96    C97     1.398   .     A
C96    H104    1.082   .     S
C97    H105    1.082   .     S
H101   C85     1.083   1_556 S
H102   C93     1.083   1_554 S
C106   C107    1.407   .     A
C106   C111    1.401   .     A
C106   C112    1.487   .     S
C107   C108    1.408   .     A
C107   H124    1.082   .     S
C108   C109    1.411   .     A
C108   H125    1.082   .     S
C109   C110    1.397   .     A
C110   C111    1.391   .     A
C110   H126    1.058   .     S
C111   H127    1.083   .     S
C112   N113    1.358   .     A
C112   N117    1.361   .     A
N113   N114    1.329   .     A
N114   C115    1.356   .     A
C115   N116    1.361   .     A
C115   C118    1.484   .     S
N116   N117    1.336   .     A
C118   C119    1.406   .     A
C118   C123    1.407   .     A
C119   H128    1.082   .     S
C119   C120    1.402   1_545 A
C120   C121    1.405   .     A
C120   H129    1.083   .     S
C120   C119    1.402   1_565 A
C121   C122    1.402   .     A
C122   H130    1.083   .     S
C122   C123    1.395   1_565 A
C123   H131    1.082   .     S
C123   C122    1.395   1_545 A
C132   C133    1.408   .     A
C132   C137    1.404   .     A
C132   C138    1.481   .     S
C133   C134    1.397   .     A
C133   H150    1.083   .     S
C134   C135    1.402   .     A
C134   H151    1.082   .     S
C135   C136    1.405   .     A
C136   C137    1.396   .     A
C136   H152    1.083   .     S
C137   H153    1.083   .     S
C138   N139    1.360   .     A
C138   N143    1.356   .     A
N139   N140    1.334   .     A
N140   C141    1.358   .     A
C141   N142    1.358   .     A
C141   C144    1.481   .     S
N142   N143    1.330   .     A
C144   C145    1.402   .     A
C144   C149    1.409   .     A
C145   C146    1.388   .     A
C145   H154    1.082   .     S
C146   C147    1.403   .     A
C146   H155    1.083   .     S
C147   C148    1.404   .     A
C148   C149    1.405   .     A
C148   H156    1.082   .     S
C149   H157    1.083   .     S
C158   C159    1.406   .     A
C158   C163    1.407   1_545 A
C158   C164    1.482   1_545 S
C159   C160    1.396   .     A
C159   H176    1.082   .     S
C160   C161    1.403   .     A
C160   H177    1.083   .     S
C161   C162    1.402   1_545 A
C162   C163    1.398   .     A
C162   H178    1.083   .     S
C162   C161    1.402   1_565 A
C163   H179    1.083   .     S
C163   C158    1.407   1_565 A
C164   N165    1.358   .     A
C164   C158    1.482   1_565 S
C164   N169    1.359   1_565 A
N165   N166    1.331   .     A
N166   C167    1.359   .     A
C167   C170    1.483   .     S
C167   N168    1.358   1_565 A
N168   N169    1.332   .     A
N168   C167    1.358   1_545 A
N169   C164    1.359   1_545 A
C170   C171    1.407   .     A
C170   C175    1.406   .     A
C171   C172    1.399   1_556 A
C171   H180    1.082   1_565 S
C172   C173    1.403   .     A
C172   C171    1.399   1_554 A
C172   H181    1.082   1_565 S
C173   C174    1.403   1_554 A
C174   C175    1.396   .     A
C174   H182    1.083   .     S
C174   C173    1.403   1_556 A
C175   H183    1.082   .     S
H180   C171    1.082   1_545 S
H181   C172    1.082   1_545 S
C184   C185    1.404   .     A
C184   C189    1.404   1_545 A
C184   C190    1.476   1_545 S
C185   C186    1.400   .     A
C185   H202    1.083   .     S
C186   C187    1.403   .     A
C186   H203    1.082   .     S
C187   C188    1.403   1_545 A
C188   C189    1.396   .     A
C188   H204    1.084   .     S
C188   C187    1.403   1_565 A
C189   H205    1.084   .     S
C189   C184    1.404   1_565 A
C190   N191    1.356   .     A
C190   C184    1.476   1_565 S
C190   N195    1.359   1_565 A
N191   N192    1.330   .     A
N192   C193    1.356   .     A
C193   C196    1.476   .     S
C193   N194    1.359   1_565 A
N194   N195    1.336   .     A
N194   C193    1.359   1_545 A
N195   C190    1.359   1_545 A
C196   C197    1.405   .     A
C196   C201    1.403   .     A
C197   C198    1.402   .     A
C197   H206    1.083   1_565 S
C198   C199    1.406   .     A
C198   H207    1.082   .     S
C199   C200    1.404   .     A
C200   C201    1.393   .     A
C200   H208    1.083   .     S
C201   H209    1.083   .     S
H206   C197    1.083   1_545 S
C210   C211    1.402   .     A
C210   C215    1.402   .     A
C210   C216    1.475   .     S
C211   C212    1.399   .     A
C211   H228    1.083   .     S
C212   C213    1.407   .     A
C212   H229    1.081   .     S
C213   C214    1.406   .     A
C214   C215    1.398   .     A
C214   H230    1.083   .     S
C215   H231    1.082   .     S
C216   N217    1.357   .     A
C216   N221    1.358   .     A
N217   N218    1.334   .     A
N218   C219    1.357   .     A
C219   N220    1.357   .     A
C219   C222    1.475   .     S
N220   N221    1.334   .     A
C222   C223    1.404   .     A
C222   C227    1.403   .     A
C223   C224    1.400   .     A
C223   H232    1.083   .     S
C224   C225    1.403   .     A
C224   H233    1.083   .     S
C225   C226    1.404   .     A
C226   C227    1.398   .     A
C226   H234    1.083   .     S
C227   H235    1.083   .     S
C236   C237    1.407   .     A
C236   C241    1.405   .     A
C236   C242    1.481   .     S
C237   C238    1.400   1_554 A
C237   H254    1.083   1_554 S
C238   C239    1.404   .     A
C238   H255    1.083   .     S
C238   C237    1.400   1_556 A
C239   C240    1.403   1_556 A
C240   C241    1.396   .     A
C240   H256    1.083   .     S
C240   C239    1.403   1_554 A
C241   H257    1.082   .     S
C242   N243    1.359   .     A
C242   N247    1.359   .     A
N243   N244    1.331   .     A
N244   C245    1.358   .     A
C245   N246    1.359   .     A
C245   C248    1.480   .     S
N246   N247    1.332   .     A
C248   C249    1.406   .     A
C248   C253    1.406   .     A
C249   C250    1.398   .     A
C249   H258    1.083   .     S
C250   C251    1.404   .     A
C250   H259    1.083   .     S
C251   C252    1.402   .     A
C252   C253    1.397   .     A
C252   H260    1.082   .     S
C253   H261    1.083   .     S
H254   C237    1.083   1_556 S
C262   C263    1.406   .     A
C262   C267    1.409   .     A
C262   C268    1.485   .     S
C263   C264    1.399   .     A
C263   H280    1.082   .     S
C264   C265    1.405   .     A
C264   H281    1.083   .     S
C265   C266    1.400   .     A
C266   C267    1.397   .     A
C266   H282    1.083   .     S
C267   H283    1.082   .     S
C268   N269    1.357   .     A
C268   N273    1.361   .     A
N269   N270    1.330   .     A
N270   C271    1.358   .     A
C271   N272    1.360   .     A
C271   C274    1.485   .     S
N272   N273    1.335   .     A
C274   C275    1.409   .     A
C274   C279    1.404   .     A
C275   C276    1.406   .     A
C275   H284    1.082   .     S
C276   C277    1.405   1_455 A
C276   H285    1.083   1_455 S
C277   C276    1.405   1_655 A
C277   C278    1.403   1_655 A
C278   C279    1.391   .     A
C278   H286    1.083   .     S
C278   C277    1.403   1_455 A
C279   H287    1.082   .     S
H285   C276    1.083   1_655 S
C288   C289    1.407   .     A
C288   C293    1.406   .     A
C288   C294    1.483   .     S
C289   H306    1.082   .     S
C289   C290    1.396   1_565 A
C290   C291    1.402   .     A
C290   H307    1.083   .     S
C290   C289    1.396   1_545 A
C291   C292    1.404   1_545 A
C292   C293    1.399   .     A
C292   H308    1.083   .     S
C292   C291    1.404   1_565 A
C293   H309    1.083   .     S
C294   N295    1.359   .     A
C294   N299    1.357   .     A
N295   N296    1.333   .     A
N296   C297    1.358   1_655 A
C297   N298    1.358   .     A
C297   C300    1.484   .     S
C297   N296    1.358   1_455 A
N298   N299    1.331   1_455 A
N299   N298    1.331   1_655 A
C300   C301    1.405   .     A
C300   C305    1.407   .     A
C301   C302    1.396   .     A
C301   H310    1.082   .     S
C302   C303    1.403   .     A
C302   H311    1.083   .     S
C303   C304    1.403   .     A
C304   C305    1.400   .     A
C304   H312    1.083   .     S
C305   H313    1.082   .     S
C314   C315    1.407   .     A
C314   C319    1.403   .     A
C314   C320    1.479   1_455 S
C315   C316    1.400   .     A
C315   H332    1.083   .     S
C316   C317    1.404   .     A
C316   H333    1.082   .     S
C317   C318    1.405   .     A
C318   C319    1.392   .     A
C318   H334    1.082   .     S
C319   H335    1.083   .     S
C320   N321    1.359   .     A
C320   N325    1.357   .     A
C320   C314    1.479   1_655 S
N321   N322    1.330   .     A
N322   C323    1.356   .     A
C323   N324    1.360   .     A
C323   C326    1.479   .     S
N324   N325    1.332   .     A
C326   C327    1.401   .     A
C326   C331    1.406   .     A
C327   C328    1.394   .     A
C327   H336    1.083   .     S
C328   C329    1.397   .     A
C328   H337    1.062   .     S
C329   C330    1.407   .     A
C330   C331    1.398   .     A
C330   H338    1.082   .     S
C331   H339    1.083   .     S
C340   C341    1.405   .     A
C340   C345    1.407   .     A
C340   C346    1.482   .     S
C341   C342    1.397   .     A
C341   H358    1.082   .     S
C342   C343    1.404   .     A
C342   H359    1.083   .     S
C343   C344    1.402   .     A
C344   C345    1.398   .     A
C344   H360    1.083   .     S
C345   H361    1.082   1_554 S
C346   N351    1.360   .     A
C346   N347    1.357   1_554 A
N347   N348    1.331   .     A
N347   C346    1.357   1_556 A
N348   C349    1.359   .     A
C349   C352    1.483   .     S
C349   N350    1.358   1_556 A
N350   N351    1.333   .     A
N350   C349    1.358   1_554 A
C352   C353    1.409   .     A
C352   C357    1.404   .     A
C353   C354    1.402   .     A
C353   H362    1.082   1_556 S
C354   C355    1.404   1_655 A
C354   H363    1.083   1_655 S
C355   C354    1.404   1_455 A
C355   C356    1.404   1_455 A
C356   C357    1.393   .     A
C356   C355    1.404   1_655 A
C356   H364    1.083   1_655 S
C357   H365    1.082   .     S
H361   C345    1.082   1_556 S
H362   C353    1.082   1_554 S
H363   C354    1.083   1_455 S
H364   C356    1.083   1_455 S
C366   C367    1.405   .     A
C366   C371    1.405   .     A
C366   C372    1.479   .     S
C367   C368    1.402   .     A
C367   H384    1.083   .     S
C368   C369    1.405   .     A
C368   H385    1.082   .     S
C369   C370    1.403   .     A
C370   C371    1.396   .     A
C370   H386    1.082   .     S
C371   H387    1.083   .     S
C372   N373    1.357   .     A
C372   N377    1.359   .     A
N373   N374    1.330   .     A
N374   C375    1.357   .     A
C375   N376    1.360   .     A
C375   C378    1.479   .     S
N376   N377    1.334   .     A
C378   C379    1.406   .     A
C378   C383    1.406   .     A
C379   C380    1.399   .     A
C379   H388    1.084   .     S
C380   C381    1.405   .     A
C380   H389    1.083   .     S
C381   C382    1.402   .     A
C382   C383    1.396   .     A
C382   H390    1.083   .     S
C383   H391    1.083   .     S
