data_lcy+N205+E229
_audit_creation_date              2025-01-21
_audit_creation_method            'Materials Studio'
_symmetry_space_group_name_H-M    'P1'
_symmetry_Int_Tables_number       1
_symmetry_cell_setting            triclinic
loop_
_symmetry_equiv_pos_as_xyz
  x,y,z
_cell_length_a                    38.7032
_cell_length_b                    37.4590
_cell_length_c                    39.7634
_cell_angle_alpha                 98.8248
_cell_angle_beta                  97.3421
_cell_angle_gamma                 97.0601
loop_
_atom_site_label
_atom_site_type_symbol
_atom_site_fract_x
_atom_site_fract_y
_atom_site_fract_z
_atom_site_U_iso_or_equiv
_atom_site_adp_type
_atom_site_occupancy
Y0     Y     0.18068   0.62232   0.87779   0.00000  Uiso   1.00
Y1     Y     0.06992   0.66391   0.83074   0.00000  Uiso   1.00
C2     C     0.01973   0.66683   0.87223   0.00000  Uiso   1.00
C3     C     0.10138   0.59437   0.85281   0.00000  Uiso   1.00
C4     C     0.21330   0.61374   0.93969   0.00000  Uiso   1.00
C5     C     0.21950   0.61668   0.82574   0.00000  Uiso   1.00
C6     C     0.14782   0.69619   0.86531   0.00000  Uiso   1.00
C7     C     0.04884   0.66715   0.76390   0.00000  Uiso   1.00
O8     O     0.02500   0.63800   0.85396   0.00000  Uiso   1.00
O9     O     0.04074   0.69432   0.86924   0.00000  Uiso   1.00
O10    O     0.12882   0.58458   0.86773   0.00000  Uiso   1.00
O11    O     0.10514   0.62090   0.83651   0.00000  Uiso   1.00
O12    O     0.21461   0.64378   0.92925   0.00000  Uiso   1.00
O13    O     0.19539   0.58788   0.91799   0.00000  Uiso   1.00
O14    O     0.19740   0.59088   0.83045   0.00000  Uiso   1.00
O15    O     0.22129   0.64491   0.84783   0.00000  Uiso   1.00
O16    O     0.11969   0.70480   0.85012   0.00000  Uiso   1.00
O17    O     0.14543   0.66670   0.87778   0.00000  Uiso   1.00
O18    O     0.04801   0.63780   0.77585   0.00000  Uiso   1.00
O19    O     0.05980   0.69490   0.78679   0.00000  Uiso   1.00
Y20    Y     0.55229   0.86368   0.15225   0.00000  Uiso   1.00
Y21    Y     0.66134   0.87492   0.10359   0.00000  Uiso   1.00
C22    C     0.72391   0.85036   0.11301   0.00000  Uiso   1.00
C23    C     0.63193   0.88116   0.18052   0.00000  Uiso   1.00
C24    C     0.52564   0.79868   0.16652   0.00000  Uiso   1.00
C25    C     0.50827   0.91405   0.15620   0.00000  Uiso   1.00
C26    C     0.58503   0.83279   0.08684   0.00000  Uiso   1.00
C27    C     0.65910   0.93238   0.07052   0.00000  Uiso   1.00
O28    O     0.69825   0.83436   0.09084   0.00000  Uiso   1.00
O29    O     0.71730   0.87945   0.12996   0.00000  Uiso   1.00
O30    O     0.60241   0.87967   0.19146   0.00000  Uiso   1.00
O31    O     0.63068   0.87797   0.14817   0.00000  Uiso   1.00
O32    O     0.51722   0.80928   0.13857   0.00000  Uiso   1.00
O33    O     0.54724   0.82211   0.18751   0.00000  Uiso   1.00
O34    O     0.53628   0.91638   0.17695   0.00000  Uiso   1.00
O35    O     0.50310   0.88572   0.13367   0.00000  Uiso   1.00
O36    O     0.61565   0.83112   0.07860   0.00000  Uiso   1.00
O37    O     0.57947   0.86199   0.10501   0.00000  Uiso   1.00
O38    O     0.66368   0.93520   0.10287   0.00000  Uiso   1.00
O39    O     0.65602   0.89974   0.05528   0.00000  Uiso   1.00
Y40    Y     0.90866   0.17031   0.59415   0.00000  Uiso   1.00
Y41    Y     0.88054   0.08569   0.67058   0.00000  Uiso   1.00
C42    C     0.94035   0.05653   0.66192   0.00000  Uiso   1.00
C43    C     0.85606   0.10166   0.59445   0.00000  Uiso   1.00
C44    C     0.96984   0.18113   0.56927   0.00000  Uiso   1.00
C45    C     0.86192   0.21547   0.58051   0.00000  Uiso   1.00
C46    C     0.90377   0.16725   0.67594   0.00000  Uiso   1.00
C47    C     0.84316   0.05025   0.71181   0.00000  Uiso   1.00
O48    O     0.93986   0.08996   0.67196   0.00000  Uiso   1.00
O49    O     0.90992   0.03864   0.65471   0.00000  Uiso   1.00
O50    O     0.88863   0.11128   0.59398   0.00000  Uiso   1.00
O51    O     0.84598   0.09039   0.62090   0.00000  Uiso   1.00
O52    O     0.94178   0.16369   0.55122   0.00000  Uiso   1.00
O53    O     0.96636   0.19158   0.60024   0.00000  Uiso   1.00
O54    O     0.88649   0.22298   0.60574   0.00000  Uiso   1.00
O55    O     0.86160   0.18454   0.56231   0.00000  Uiso   1.00
O56    O     0.89259   0.14554   0.69499   0.00000  Uiso   1.00
O57    O     0.90503   0.15262   0.64516   0.00000  Uiso   1.00
O58    O     0.83810   0.04295   0.67945   0.00000  Uiso   1.00
O59    O     0.86697   0.07717   0.72318   0.00000  Uiso   1.00
Y60    Y     0.40256   0.34147   0.41651   0.00000  Uiso   1.00
Y61    Y     0.36898   0.40159   0.35930   0.00000  Uiso   1.00
C62    C     0.41021   0.46494   0.38948   0.00000  Uiso   1.00
C63    C     0.34986   0.39270   0.43336   0.00000  Uiso   1.00
C64    C     0.45007   0.30572   0.44775   0.00000  Uiso   1.00
C65    C     0.34210   0.29747   0.38762   0.00000  Uiso   1.00
C66    C     0.43012   0.35812   0.35337   0.00000  Uiso   1.00
C67    C     0.31756   0.40262   0.30726   0.00000  Uiso   1.00
O68    O     0.41034   0.43559   0.40104   0.00000  Uiso   1.00
O69    O     0.38866   0.46160   0.36227   0.00000  Uiso   1.00
O70    O     0.38129   0.38848   0.44411   0.00000  Uiso   1.00
O71    O     0.33812   0.38738   0.40117   0.00000  Uiso   1.00
O72    O     0.43582   0.33033   0.46387   0.00000  Uiso   1.00
O73    O     0.43941   0.29964   0.41584   0.00000  Uiso   1.00
O74    O     0.35284   0.30436   0.41953   0.00000  Uiso   1.00
O75    O     0.36310   0.31272   0.37057   0.00000  Uiso   1.00
O76    O     0.40045   0.36002   0.33681   0.00000  Uiso   1.00
O77    O     0.43648   0.37091   0.38513   0.00000  Uiso   1.00
O78    O     0.31188   0.39748   0.33686   0.00000  Uiso   1.00
O79    O     0.34996   0.40808   0.30493   0.00000  Uiso   1.00
C80    C     0.49536   0.77500   0.06098   0.00000  Uiso   1.00
C81    C     0.50447   0.73985   0.06078   0.00000  Uiso   1.00
C82    C     0.53968   0.73512   0.06850   0.00000  Uiso   1.00
C83    C     0.56606   0.76540   0.07673   0.00000  Uiso   1.00
C84    C     0.55739   0.80074   0.07715   0.00000  Uiso   1.00
C85    C     0.52205   0.80532   0.06841   0.00000  Uiso   1.00
C86    C     0.45729   0.78015   0.05543   0.00000  Uiso   1.00
H87    H     0.48426   0.71618   0.05509   0.00000  Uiso   1.00
H88    H     0.54650   0.70797   0.06866   0.00000  Uiso   1.00
H89    H     0.59311   0.76131   0.08356   0.00000  Uiso   1.00
H90    H     0.51523   0.83255   0.06853   0.00000  Uiso   1.00
H91    H     0.44338   0.76642   0.07383   0.00000  Uiso   1.00
H92    H     0.45482   0.80972   0.06067   0.00000  Uiso   1.00
C93    C     0.24581   0.73162   0.88288   0.00000  Uiso   1.00
C94    C     0.21287   0.71239   0.88470   0.00000  Uiso   1.00
C95    C     0.27904   0.71842   0.89679   0.00000  Uiso   1.00
C96    C     0.33340   0.73575   0.93549   0.00000  Uiso   1.00
C97    C     0.34996   0.75773   0.97047   0.00000  Uiso   1.00
C98    C     0.24743   0.76115   0.86509   0.00000  Uiso   1.00
C99    C     0.21660   0.77006   0.84812   0.00000  Uiso   1.00
C100   C     0.18197   0.71961   0.86632   0.00000  Uiso   1.00
H101   H     0.27257   0.77670   0.86376   0.00000  Uiso   1.00
H102   H     0.21803   0.79256   0.83399   0.00000  Uiso   1.00
H103   H     0.16071   0.75594   0.83407   0.00000  Uiso   1.00
H104   H     0.21144   0.69061   0.89907   0.00000  Uiso   1.00
H105   H     0.29551   0.71492   0.87583   0.00000  Uiso   1.00
C106   C     0.40569   0.77277   0.01329   0.00000  Uiso   1.00
C107   C     0.38789   0.75085  -0.02124   0.00000  Uiso   1.00
H108   H     0.33248   0.70615   0.93673   0.00000  Uiso   1.00
H109   H     0.34948   0.78727   0.97011   0.00000  Uiso   1.00
H110   H     0.33456   0.74926  -0.00958   0.00000  Uiso   1.00
H111   H     0.34972   0.74268   0.91568   0.00000  Uiso   1.00
H112   H     0.27287   0.69135   0.90467   0.00000  Uiso   1.00
H113   H     0.40664   0.80240   0.01241   0.00000  Uiso   1.00
H114   H     0.39026   0.76550   0.03367   0.00000  Uiso   1.00
N115   N     0.44147   0.76420   0.02010   0.00000  Uiso   1.00
N116   N     0.29794   0.74458   0.92649   0.00000  Uiso   1.00
C117   C     0.18407   0.74921   0.84835   0.00000  Uiso   1.00
C118   C     0.46848   0.27401   0.32334   0.00000  Uiso   1.00
C119   C     0.50321   0.28904   0.32175   0.00000  Uiso   1.00
C120   C     0.51314   0.32691   0.32806   0.00000  Uiso   1.00
C121   C     0.48879   0.35001   0.33689   0.00000  Uiso   1.00
C122   C     0.45408   0.33525   0.33839   0.00000  Uiso   1.00
C123   C     0.44381   0.29738   0.33088   0.00000  Uiso   1.00
C124   C     0.45865   0.23341   0.32001   0.00000  Uiso   1.00
H125   H     0.52273   0.27141   0.31633   0.00000  Uiso   1.00
H126   H     0.53998   0.33834   0.32702   0.00000  Uiso   1.00
H127   H     0.49711   0.37924   0.34326   0.00000  Uiso   1.00
H128   H     0.41718   0.28612   0.33308   0.00000  Uiso   1.00
H129   H     0.47475   0.22424   0.34144   0.00000  Uiso   1.00
H130   H     0.43035   0.22631   0.32230   0.00000  Uiso   1.00
C131   C     0.47571   1.00516   0.17106   0.00000  Uiso   1.00
C132   C     0.49747   0.97796   0.17241   0.00000  Uiso   1.00
C133   C     0.49082   0.04460   0.18287   0.00000  Uiso   1.00
C134   C     0.48152   0.10036   0.21663   0.00000  Uiso   1.00
C135   C     0.46515   0.11635   0.24733   0.00000  Uiso   1.00
C136   C     0.44014   0.99543   0.15647   0.00000  Uiso   1.00
C137   C     0.42678   0.95906   0.14258   0.00000  Uiso   1.00
C138   C     0.48440   0.94164   0.15761   0.00000  Uiso   1.00
H139   H     0.42293   1.01607   0.15539   0.00000  Uiso   1.00
H140   H     0.39940   0.95173   0.13117   0.00000  Uiso   1.00
H141   H     0.43838   0.90435   0.13104   0.00000  Uiso   1.00
H142   H     0.52498   0.98527   0.18352   0.00000  Uiso   1.00
H143   H     0.48729   0.05879   0.16031   0.00000  Uiso   1.00
C144   C     0.45872   0.17558   0.28434   0.00000  Uiso   1.00
C145   C     0.47132   0.15792   0.25198   0.00000  Uiso   1.00
H146   H     0.51061   0.10854   0.22223   0.00000  Uiso   1.00
H147   H     0.43637   0.10653   0.24295   0.00000  Uiso   1.00
H148   H     0.47741   0.10724   0.27080   0.00000  Uiso   1.00
H149   H     0.47095   0.11125   0.19349   0.00000  Uiso   1.00
H150   H     0.51949   0.04755   0.19244   0.00000  Uiso   1.00
H151   H     0.43001   0.16656   0.28294   0.00000  Uiso   1.00
H152   H     0.47338   0.16701   0.30698   0.00000  Uiso   1.00
N153   N     0.46555   0.21521   0.28680   0.00000  Uiso   1.00
N154   N     0.47283   0.06057   0.21039   0.00000  Uiso   1.00
C155   C     0.44892   0.93229   0.14264   0.00000  Uiso   1.00
C156   C     0.77974   0.24931   0.54348   0.00000  Uiso   1.00
C157   C     0.78639   0.28634   0.55883   0.00000  Uiso   1.00
C158   C     0.81762   0.30013   0.58127   0.00000  Uiso   1.00
C159   C     0.84240   0.27713   0.58854   0.00000  Uiso   1.00
C160   C     0.83613   0.24007   0.57313   0.00000  Uiso   1.00
C161   C     0.80473   0.22637   0.55066   0.00000  Uiso   1.00
C162   C     0.74603   0.23437   0.51970   0.00000  Uiso   1.00
H163   H     0.76739   0.30449   0.55351   0.00000  Uiso   1.00
H164   H     0.82259   0.32869   0.59309   0.00000  Uiso   1.00
H165   H     0.86653   0.28845   0.60587   0.00000  Uiso   1.00
H166   H     0.79955   0.19774   0.53902   0.00000  Uiso   1.00
H167   H     0.74458   0.24948   0.49767   0.00000  Uiso   1.00
H168   H     0.74557   0.20514   0.50882   0.00000  Uiso   1.00
C169   C     0.52161   0.28145   0.51114   0.00000  Uiso   1.00
C170   C     0.49578   0.30020   0.49652   0.00000  Uiso   1.00
C171   C     0.54429   0.29777   0.54490   0.00000  Uiso   1.00
C172   C     0.60463   0.28376   0.55171   0.00000  Uiso   1.00
C173   C     0.63321   0.28055   0.52885   0.00000  Uiso   1.00
C174   C     0.52711   0.24776   0.49326   0.00000  Uiso   1.00
C175   C     0.50778   0.23340   0.46094   0.00000  Uiso   1.00
C176   C     0.47634   0.28581   0.46392   0.00000  Uiso   1.00
H177   H     0.54665   0.23275   0.50409   0.00000  Uiso   1.00
H178   H     0.51241   0.20758   0.44720   0.00000  Uiso   1.00
H179   H     0.46837   0.24110   0.42079   0.00000  Uiso   1.00
H180   H     0.49157   0.32637   0.50997   0.00000  Uiso   1.00
H181   H     0.54205   0.27850   0.56349   0.00000  Uiso   1.00
C182   C     0.68947   0.25501   0.52165   0.00000  Uiso   1.00
C183   C     0.66058   0.25906   0.54387   0.00000  Uiso   1.00
H184   H     0.61670   0.29599   0.57855   0.00000  Uiso   1.00
H185   H     0.62109   0.26622   0.50260   0.00000  Uiso   1.00
H186   H     0.64611   0.30829   0.52707   0.00000  Uiso   1.00
H187   H     0.59095   0.25580   0.55160   0.00000  Uiso   1.00
H188   H     0.53500   0.32306   0.55658   0.00000  Uiso   1.00
H189   H     0.67806   0.23813   0.49625   0.00000  Uiso   1.00
H190   H     0.70123   0.28258   0.51813   0.00000  Uiso   1.00
N191   N     0.71635   0.23720   0.53896   0.00000  Uiso   1.00
N192   N     0.58055   0.30756   0.53879   0.00000  Uiso   1.00
C193   C     0.48282   0.25250   0.44611   0.00000  Uiso   1.00
C194   C     0.80597   0.01896   0.78865   0.00000  Uiso   1.00
C195   C     0.78603   0.98549   0.77241   0.00000  Uiso   1.00
C196   C     0.78451   0.97380   0.73723   0.00000  Uiso   1.00
C197   C     0.80296  -0.00475   0.71780   0.00000  Uiso   1.00
C198   C     0.82351   0.02869   0.73340   0.00000  Uiso   1.00
C199   C     0.82518   0.04036   0.76907   0.00000  Uiso   1.00
C200   C     0.80674   0.03080   0.82673   0.00000  Uiso   1.00
H201   H     0.77145   0.96851   0.78708   0.00000  Uiso   1.00
H202   H     0.76893   0.94804   0.72491   0.00000  Uiso   1.00
H203   H     0.80152  -0.01459   0.69055   0.00000  Uiso   1.00
H204   H     0.84129   0.06580   0.78154   0.00000  Uiso   1.00
H205   H     0.82017   1.01118   0.84013   0.00000  Uiso   1.00
H206   H     0.82180   0.05860   0.83571   0.00000  Uiso   1.00
C207   C     0.65683   0.99012   1.00005   0.00000  Uiso   1.00
C208   C     0.65844   0.95999   1.01707   0.00000  Uiso   1.00
C209   C     0.65871   0.98627   0.96215   0.00000  Uiso   1.00
C210   C     0.69244   1.00740   0.92020   0.00000  Uiso   1.00
C211   C     0.72942   1.02324   0.91543   0.00000  Uiso   1.00
C212   C     0.65355   1.02416   1.01878   0.00000  Uiso   1.00
C213   C     0.65192   1.02808   0.05400   0.00000  Uiso   1.00
C214   C     0.65722   0.96392   0.05260   0.00000  Uiso   1.00
H215   H     0.65211   1.04760   1.00602   0.00000  Uiso   1.00
H216   H     0.64918   0.05437   0.06824   0.00000  Uiso   1.00
H217   H     0.65251   1.00179   0.09823   0.00000  Uiso   1.00
H218   H     0.66095   0.93364   1.00276   0.00000  Uiso   1.00
H219   H     0.63538   0.99617   0.94929   0.00000  Uiso   1.00
C220   C     0.76952   1.03458   0.87141   0.00000  Uiso   1.00
C221   C     0.73185   1.02297   0.87730   0.00000  Uiso   1.00
H222   H     0.68604   0.97897   0.90559   0.00000  Uiso   1.00
H223   H     0.73609   0.05173   0.92967   0.00000  Uiso   1.00
H224   H     0.74847   1.00641   0.92609   0.00000  Uiso   1.00
H225   H     0.67302   1.02420   0.91013   0.00000  Uiso   1.00
H226   H     0.65817   0.95712   0.95080   0.00000  Uiso   1.00
H227   H     0.77824   0.06362   0.88349   0.00000  Uiso   1.00
H228   H     0.78684   1.01701   0.88354   0.00000  Uiso   1.00
N229   N     0.77056   1.03039   0.83434   0.00000  Uiso   1.00
N230   N     0.69129   1.00763   0.95692   0.00000  Uiso   1.00
C231   C     0.65393   0.99820   0.07092   0.00000  Uiso   1.00
C232   C     0.81025   0.09612   0.50301   0.00000  Uiso   1.00
C233   C     0.77817   0.10775   0.50928   0.00000  Uiso   1.00
C234   C     0.77170   0.11763   0.54299   0.00000  Uiso   1.00
C235   C     0.79706   0.11576   0.57081   0.00000  Uiso   1.00
C236   C     0.82968   0.10509   0.56516   0.00000  Uiso   1.00
C237   C     0.83633   0.09588   0.53112   0.00000  Uiso   1.00
C238   C     0.81615   0.08370   0.46649   0.00000  Uiso   1.00
H239   H     0.75795   0.10866   0.48805   0.00000  Uiso   1.00
H240   H     0.74681   0.12644   0.54754   0.00000  Uiso   1.00
H241   H     0.79127   0.12287   0.59672   0.00000  Uiso   1.00
H242   H     0.86131   0.08733   0.52657   0.00000  Uiso   1.00
H243   H     0.81375   0.10668   0.45204   0.00000  Uiso   1.00
H244   H     0.84305   0.07618   0.46612   0.00000  Uiso   1.00
C245   C     0.69945   0.90398   0.26219   0.00000  Uiso   1.00
C246   C     0.66848   0.90287   0.23883   0.00000  Uiso   1.00
C247   C     0.70165   0.91972   0.29985   0.00000  Uiso   1.00
C248   C     0.73371   0.96279   0.34807   0.00000  Uiso   1.00
C249   C     0.76346   0.99488   0.36039   0.00000  Uiso   1.00
C250   C     0.72712   0.88680   0.25082   0.00000  Uiso   1.00
C251   C     0.72350   0.86774   0.21722   0.00000  Uiso   1.00
C252   C     0.66512   0.88449   0.20460   0.00000  Uiso   1.00
H253   H     0.75090   0.88687   0.26841   0.00000  Uiso   1.00
H254   H     0.74437   0.85326   0.20904   0.00000  Uiso   1.00
H255   H     0.68863   0.84826   0.16991   0.00000  Uiso   1.00
H256   H     0.64667   0.91536   0.24749   0.00000  Uiso   1.00
H257   H     0.70560   0.89735   0.31482   0.00000  Uiso   1.00
C258   C     0.79271   0.04093   0.41400   0.00000  Uiso   1.00
C259   C     0.76432   1.00837   0.39893   0.00000  Uiso   1.00
H260   H     0.70849   0.97185   0.35403   0.00000  Uiso   1.00
H261   H     0.78906   0.98590   0.35583   0.00000  Uiso   1.00
H262   H     0.75881   1.01738   0.34587   0.00000  Uiso   1.00
H263   H     0.73914   0.94022   0.36230   0.00000  Uiso   1.00
H264   H     0.67648   0.92948   0.30489   0.00000  Uiso   1.00
H265   H     0.81907   0.03283   0.41141   0.00000  Uiso   1.00
H266   H     0.78862   0.06381   0.39980   0.00000  Uiso   1.00
N267   N     0.78991   0.05202   0.45042   0.00000  Uiso   1.00
N268   N     0.73095   0.94988   0.31089   0.00000  Uiso   1.00
C269   C     0.69233   0.86583   0.19464   0.00000  Uiso   1.00
C270   C     0.31475   0.41689   0.51757   0.00000  Uiso   1.00
C271   C     0.27850   0.41300   0.50567   0.00000  Uiso   1.00
C272   C     0.26594   0.40416   0.47054   0.00000  Uiso   1.00
C273   C     0.28930   0.39840   0.44699   0.00000  Uiso   1.00
C274   C     0.32562   0.40110   0.45837   0.00000  Uiso   1.00
C275   C     0.33818   0.41056   0.49384   0.00000  Uiso   1.00
C276   C     0.32792   0.42738   0.55548   0.00000  Uiso   1.00
H277   H     0.26000   0.41733   0.52360   0.00000  Uiso   1.00
H278   H     0.23798   0.40157   0.46156   0.00000  Uiso   1.00
H279   H     0.27883   0.39121   0.41989   0.00000  Uiso   1.00
H280   H     0.36606   0.41276   0.50303   0.00000  Uiso   1.00
H281   H     0.31825   0.40435   0.56811   0.00000  Uiso   1.00
H282   H     0.35721   0.43222   0.56058   0.00000  Uiso   1.00
C283   C     0.25108   0.58587   0.74107   0.00000  Uiso   1.00
C284   C     0.23318   0.58554   0.76966   0.00000  Uiso   1.00
C285   C     0.24110   0.55616   0.71013   0.00000  Uiso   1.00
C286   C     0.26613   0.52229   0.66550   0.00000  Uiso   1.00
C287   C     0.29799   0.50470   0.65652   0.00000  Uiso   1.00
C288   C     0.27668   0.61567   0.74046   0.00000  Uiso   1.00
C289   C     0.28469   0.64450   0.76822   0.00000  Uiso   1.00
C290   C     0.24043   0.61502   0.79720   0.00000  Uiso   1.00
H291   H     0.29015   0.61669   0.71830   0.00000  Uiso   1.00
H292   H     0.30451   0.66737   0.76766   0.00000  Uiso   1.00
H293   H     0.27279   0.66727   0.81738   0.00000  Uiso   1.00
H294   H     0.21278   0.56306   0.76987   0.00000  Uiso   1.00
H295   H     0.22924   0.56872   0.68863   0.00000  Uiso   1.00
C296   C     0.32060   0.46891   0.60634   0.00000  Uiso   1.00
C297   C     0.29254   0.49104   0.61784   0.00000  Uiso   1.00
H298   H     0.24258   0.50085   0.66070   0.00000  Uiso   1.00
H299   H     0.32224   0.52509   0.66370   0.00000  Uiso   1.00
H300   H     0.30085   0.48159   0.67069   0.00000  Uiso   1.00
H301   H     0.26163   0.54294   0.64863   0.00000  Uiso   1.00
H302   H     0.22102   0.53429   0.71475   0.00000  Uiso   1.00
H303   H     0.34720   0.48501   0.61494   0.00000  Uiso   1.00
H304   H     0.31859   0.44365   0.61793   0.00000  Uiso   1.00
N305   N     0.31424   0.46062   0.56876   0.00000  Uiso   1.00
N306   N     0.27224   0.54012   0.70159   0.00000  Uiso   1.00
C307   C     0.26663   0.64428   0.79641   0.00000  Uiso   1.00
C308   C     0.22935   0.57912   0.02370   0.00000  Uiso   1.00
C309   C     0.25643   0.60609   0.04214   0.00000  Uiso   1.00
C310   C     0.27012   0.63465   1.02667   0.00000  Uiso   1.00
C311   C     0.25653   0.63687   0.99292   0.00000  Uiso   1.00
C312   C     0.22965   0.60992   0.97411   0.00000  Uiso   1.00
C313   C     0.21654   0.58082   0.98944   0.00000  Uiso   1.00
C314   C     0.21214   0.55069   0.04146   0.00000  Uiso   1.00
H315   H     0.26656   0.60526   0.06864   0.00000  Uiso   1.00
H316   H     0.29068   0.65560   1.04113   0.00000  Uiso   1.00
H317   H     0.26679   0.65974   0.98160   0.00000  Uiso   1.00
H318   H     0.19506   0.56060   0.97534   0.00000  Uiso   1.00
H319   H     0.19858   0.56509   0.06140   0.00000  Uiso   1.00
H320   H     0.19196   0.53097   0.02305   0.00000  Uiso   1.00
C321   C     0.27065   0.40430   0.21781   0.00000  Uiso   1.00
C322   C     0.29746   0.40809   0.24609   0.00000  Uiso   1.00
C323   C     0.27891   0.41218   0.18348   0.00000  Uiso   1.00
C324   C     0.26611   0.44938   0.14018   0.00000  Uiso   1.00
C325   C     0.24142   0.47554   0.12899   0.00000  Uiso   1.00
C326   C     0.23568   0.39299   0.22180   0.00000  Uiso   1.00
C327   C     0.22744   0.38670   0.25373   0.00000  Uiso   1.00
C328   C     0.28934   0.40098   0.27813   0.00000  Uiso   1.00
H329   H     0.21474   0.38950   0.20023   0.00000  Uiso   1.00
H330   H     0.20036   0.37838   0.25666   0.00000  Uiso   1.00
H331   H     0.24714   0.38529   0.30625   0.00000  Uiso   1.00
H332   H     0.32457   0.41624   0.24306   0.00000  Uiso   1.00
H333   H     0.27165   0.38652   0.16431   0.00000  Uiso   1.00
C334   C     0.22479   0.51246   0.08323   0.00000  Uiso   1.00
C335   C     0.25170   0.48996   0.09724   0.00000  Uiso   1.00
H336   H     0.29393   0.46261   0.14306   0.00000  Uiso   1.00
H337   H     0.21397   0.46093   0.12317   0.00000  Uiso   1.00
H338   H     0.24283   0.49896   0.15026   0.00000  Uiso   1.00
H339   H     0.26186   0.42431   0.12019   0.00000  Uiso   1.00
H340   H     0.30756   0.42165   0.18491   0.00000  Uiso   1.00
H341   H     0.19991   0.49395   0.07204   0.00000  Uiso   1.00
H342   H     0.21971   0.53322   0.10454   0.00000  Uiso   1.00
N343   N     0.23860   0.53082   0.05684   0.00000  Uiso   1.00
N344   N     0.25850   0.44018   0.17317   0.00000  Uiso   1.00
C345   C     0.25408   0.39068   0.28180   0.00000  Uiso   1.00
C346   C     0.25463   0.23572   0.37733   0.00000  Uiso   1.00
C347   C     0.24337   0.23301   0.34195   0.00000  Uiso   1.00
C348   C     0.26445   0.25059   0.32168   0.00000  Uiso   1.00
C349   C     0.29695   0.27097   0.33648   0.00000  Uiso   1.00
C350   C     0.30835   0.27469   0.37195   0.00000  Uiso   1.00
C351   C     0.28696   0.25706   0.39234   0.00000  Uiso   1.00
C352   C     0.23270   0.21477   0.39844   0.00000  Uiso   1.00
H353   H     0.21835   0.21707   0.33005   0.00000  Uiso   1.00
H354   H     0.25563   0.24834   0.29440   0.00000  Uiso   1.00
H355   H     0.31308   0.28401   0.32021   0.00000  Uiso   1.00
H356   H     0.29552   0.25974   0.41974   0.00000  Uiso   1.00
H357   H     0.22963   0.18521   0.38731   0.00000  Uiso   1.00
H358   H     0.24601   0.21862   0.42552   0.00000  Uiso   1.00
C359   C     0.03420   0.20661   0.50946   0.00000  Uiso   1.00
C360   C     0.00307   0.19274   0.52085   0.00000  Uiso   1.00
C361   C     0.03417   0.21230   0.47279   0.00000  Uiso   1.00
C362   C     0.08653   0.21752   0.44505   0.00000  Uiso   1.00
C363   C     0.11553   0.19657   0.43364   0.00000  Uiso   1.00
C364   C     0.06534   0.21695   0.53314   0.00000  Uiso   1.00
C365   C     0.06553   0.21342   0.56757   0.00000  Uiso   1.00
C366   C     1.00298   0.19038   0.55583   0.00000  Uiso   1.00
H367   H     0.08949   0.22791   0.52497   0.00000  Uiso   1.00
H368   H     0.08961   0.22146   0.58569   0.00000  Uiso   1.00
H369   H     1.03498   0.19897   0.60597   0.00000  Uiso   1.00
H370   H    -0.02126   0.18554   0.50292   0.00000  Uiso   1.00
H371   H     0.03886   0.24222   0.47258   0.00000  Uiso   1.00
C372   C     0.17500   0.20377   0.41420   0.00000  Uiso   1.00
C373   C     0.14197   0.22105   0.41879   0.00000  Uiso   1.00
H374   H     0.07342   0.22835   0.42297   0.00000  Uiso   1.00
H375   H     0.12902   0.18700   0.45631   0.00000  Uiso   1.00
H376   H     0.10386   0.17247   0.41370   0.00000  Uiso   1.00
H377   H     0.09861   0.24075   0.46589   0.00000  Uiso   1.00
H378   H     0.00810   0.20158   0.45705   0.00000  Uiso   1.00
H379   H     0.18822   0.20095   0.44001   0.00000  Uiso   1.00
H380   H     0.16770   0.17635   0.39775   0.00000  Uiso   1.00
N381   N     0.19827   0.22723   0.39787   0.00000  Uiso   1.00
N382   N     0.06072   0.19289   0.45769   0.00000  Uiso   1.00
C383   C     1.03451   0.20051   0.57894   0.00000  Uiso   1.00
C384   C     1.00579  -0.00766   0.68004   0.00000  Uiso   1.00
C385   C     1.03634   0.01065   0.67126   0.00000  Uiso   1.00
C386   C     1.03515   0.04298   0.65785   0.00000  Uiso   1.00
C387   C     1.00370   0.05784   0.65392   0.00000  Uiso   1.00
C388   C     0.97282   0.03959   0.66211   0.00000  Uiso   1.00
C389   C     0.97390   0.00644   0.67440   0.00000  Uiso   1.00
C390   C     1.00786   0.96036   0.69871   0.00000  Uiso   1.00
H391   H     1.06125   0.00048   0.67573   0.00000  Uiso   1.00
H392   H     1.05890   0.05704   0.65135   0.00000  Uiso   1.00
H393   H     1.00352   0.08361   0.64477   0.00000  Uiso   1.00
H394   H     0.95028   0.99275   0.68153   0.00000  Uiso   1.00
H395   H     1.02707   0.96925   0.72275   0.00000  Uiso   1.00
H396   H     0.98177   0.95170   0.70624   0.00000  Uiso   1.00
C397   C     0.03928   0.70302   0.67942   0.00000  Uiso   1.00
C398   C     0.04609   0.70185   0.71481   0.00000  Uiso   1.00
C399   C     0.04925   0.73797   0.66630   0.00000  Uiso   1.00
C400   C     0.04072   0.80098   0.66961   0.00000  Uiso   1.00
C401   C     1.02605   0.83202   0.69017   0.00000  Uiso   1.00
C402   C     1.02511   0.67078   0.65629   0.00000  Uiso   1.00
C403   C     1.01842   0.63783   0.66828   0.00000  Uiso   1.00
C404   C     0.03944   0.66872   0.72701   0.00000  Uiso   1.00
H405   H     1.01990   0.67093   0.62890   0.00000  Uiso   1.00
H406   H     1.00811   0.61297   0.65024   0.00000  Uiso   1.00
H407   H     0.02088   0.61074   0.71204   0.00000  Uiso   1.00
H408   H     0.05726   0.72663   0.73267   0.00000  Uiso   1.00
H409   H     0.04087   0.73418   0.63798   0.00000  Uiso   1.00
C410   C     1.01290   0.89657   0.69216   0.00000  Uiso   1.00
C411   C     1.03056   0.86652   0.67394   0.00000  Uiso   1.00
H412   H     0.06970   0.80857   0.67117   0.00000  Uiso   1.00
H413   H     0.99761   0.82342   0.69077   0.00000  Uiso   1.00
H414   H     1.04023   0.83797   0.71703   0.00000  Uiso   1.00
H415   H     0.02819   0.79664   0.64222   0.00000  Uiso   1.00
H416   H     0.07840   0.74509   0.67157   0.00000  Uiso   1.00
H417   H     0.98407   0.88718   0.68876   0.00000  Uiso   1.00
H418   H     1.02368   0.90191   0.72008   0.00000  Uiso   1.00
N419   N     1.01924   0.92980   0.67728   0.00000  Uiso   1.00
N420   N     0.03293   0.76745   0.68370   0.00000  Uiso   1.00
C421   C     0.02564   0.63671   0.70340   0.00000  Uiso   1.00
C422   C     0.01311   0.53391   0.83796   0.00000  Uiso   1.00
C423   C     0.00288   0.54162   0.87061   0.00000  Uiso   1.00
C424   C     0.02450   0.56655   0.89685   0.00000  Uiso   1.00
C425   C     0.05645   0.58414   0.89074   0.00000  Uiso   1.00
C426   C     0.06672   0.57736   0.85807   0.00000  Uiso   1.00
C427   C     0.04507   0.55216   0.83168   0.00000  Uiso   1.00
C428   C     0.99011   0.50568   0.81061   0.00000  Uiso   1.00
H429   H     0.97817   0.52816   0.87573   0.00000  Uiso   1.00
H430   H     0.01631   0.57243   0.92189   0.00000  Uiso   1.00
H431   H     0.07296   0.60343   0.91134   0.00000  Uiso   1.00
H432   H     0.05349   0.54618   0.80672   0.00000  Uiso   1.00
H433   H     0.96385   0.51468   0.80580   0.00000  Uiso   1.00
H434   H     1.00143   0.50306   0.78618   0.00000  Uiso   1.00
C435   C     0.92271   0.25903   0.73695   0.00000  Uiso   1.00
C436   C     0.90919   0.22227   0.72288   0.00000  Uiso   1.00
C437   C    -0.08119   0.27498   0.77332   0.00000  Uiso   1.00
C438   C    -0.06269   0.33974   0.79586   0.00000  Uiso   1.00
C439   C     0.93076   0.37782   0.78980   0.00000  Uiso   1.00
C440   C     0.94179   0.28022   0.71743   0.00000  Uiso   1.00
C441   C     0.94709   0.26525   0.68456   0.00000  Uiso   1.00
C442   C     0.91477   0.20684   0.68963   0.00000  Uiso   1.00
H443   H     0.95288   0.30831   0.72765   0.00000  Uiso   1.00
H444   H     0.96178   0.28177   0.66963   0.00000  Uiso   1.00
H445   H     0.93994   0.21769   0.64638   0.00000  Uiso   1.00
H446   H     0.89529   0.20551   0.73819   0.00000  Uiso   1.00
H447   H    -0.05632   0.27428   0.79057   0.00000  Uiso   1.00
C448   C     0.95924   0.44407   0.80002   0.00000  Uiso   1.00
C449   C    -0.03953   0.40662   0.81034   0.00000  Uiso   1.00
H450   H    -0.06253   0.33799   0.82356   0.00000  Uiso   1.00
H451   H     0.92951   0.37891   0.76190   0.00000  Uiso   1.00
H452   H     0.90532   0.38361   0.79797   0.00000  Uiso   1.00
H453   H    -0.03645   0.33527   0.78876   0.00000  Uiso   1.00
H454   H    -0.10237   0.25788   0.78246   0.00000  Uiso   1.00
H455   H     0.96347   0.44231   0.77269   0.00000  Uiso   1.00
H456   H     0.93310   0.45261   0.80303   0.00000  Uiso   1.00
N457   N    -0.01301   0.47035   0.82235   0.00000  Uiso   1.00
N458   N     0.90952   0.31208   0.77490   0.00000  Uiso   1.00
C459   C     0.93405   0.22885   0.67105   0.00000  Uiso   1.00
C460   C     0.79371   0.78791   0.10789   0.00000  Uiso   1.00
C461   C     0.82144   0.80868   0.13179   0.00000  Uiso   1.00
C462   C     0.81736   0.84287   0.14923   0.00000  Uiso   1.00
C463   C     0.78557   0.85653   0.14309   0.00000  Uiso   1.00
C464   C     0.75764   0.83621   0.11908   0.00000  Uiso   1.00
C465   C     0.76193   0.80191   0.10146   0.00000  Uiso   1.00
C466   C     0.79790   0.75099   0.08934   0.00000  Uiso   1.00
H467   H     0.84618   0.79839   0.13697   0.00000  Uiso   1.00
H468   H     0.83882   0.85879   0.16766   0.00000  Uiso   1.00
H469   H     0.78284   0.88298   0.15704   0.00000  Uiso   1.00
H470   H     0.74047   0.78584   0.08307   0.00000  Uiso   1.00
H471   H     0.81614   0.73782   0.10590   0.00000  Uiso   1.00
H472   H     0.77222   0.73286   0.08454   0.00000  Uiso   1.00
C473   C     0.95685   0.70279   0.93070   0.00000  Uiso   1.00
C474   C     0.98511   0.70152   0.91174   0.00000  Uiso   1.00
C475   C     0.94753   0.73901   0.94614   0.00000  Uiso   1.00
C476   C     0.90316   0.74785   0.98326   0.00000  Uiso   1.00
C477   C     0.89324   0.74262   1.01822   0.00000  Uiso   1.00
C478   C     0.93572   0.67009   0.93269   0.00000  Uiso   1.00
C479   C     0.94290   0.63674   0.91631   0.00000  Uiso   1.00
C480   C    -0.00831   0.66807   0.89421   0.00000  Uiso   1.00
H481   H     0.91357   0.67036   0.94680   0.00000  Uiso   1.00
H482   H     0.92680   0.61161   0.91831   0.00000  Uiso   1.00
H483   H    -0.02560   0.60974   0.88310   0.00000  Uiso   1.00
H484   H     0.00125   0.72666   0.90980   0.00000  Uiso   1.00
H485   H     0.92581   0.74583   0.92807   0.00000  Uiso   1.00
C486   C     0.84587   0.74804   0.05593   0.00000  Uiso   1.00
C487   C     0.85605   0.75131   0.02070   0.00000  Uiso   1.00
H488   H     0.90334   0.77699   0.98047   0.00000  Uiso   1.00
H489   H     0.89441   0.71384   1.02157   0.00000  Uiso   1.00
H490   H     0.91223   0.76102   0.03882   0.00000  Uiso   1.00
H491   H     0.88325   0.73037   0.96272   0.00000  Uiso   1.00
H492   H     0.97023   0.76097   0.94854   0.00000  Uiso   1.00
H493   H     0.84857   0.72010   0.06118   0.00000  Uiso   1.00
H494   H     0.86362   0.76871   0.07578   0.00000  Uiso   1.00
N495   N     0.80935   0.75439   0.05605   0.00000  Uiso   1.00
N496   N     0.93815   0.73759   0.98059   0.00000  Uiso   1.00
C497   C    -0.02965   0.63574   0.89676   0.00000  Uiso   1.00
C498   C     0.51823   0.71445   0.20769   0.00000  Uiso   1.00
C499   C     0.49091   0.69171   0.18474   0.00000  Uiso   1.00
C500   C     0.47439   0.70431   0.15644   0.00000  Uiso   1.00
C501   C     0.48541   0.73941   0.15052   0.00000  Uiso   1.00
C502   C     0.51264   0.76243   0.17338   0.00000  Uiso   1.00
C503   C     0.52860   0.75000   0.20219   0.00000  Uiso   1.00
C504   C     0.53623   0.70053   0.23769   0.00000  Uiso   1.00
H505   H     0.48260   0.66420   0.18873   0.00000  Uiso   1.00
H506   H     0.45324   0.68671   0.13892   0.00000  Uiso   1.00
H507   H     0.47274   0.74850   0.12813   0.00000  Uiso   1.00
H508   H     0.54950   0.76774   0.21998   0.00000  Uiso   1.00
H509   H     0.54511   0.67427   0.22784   0.00000  Uiso   1.00
H510   H     0.55979   0.72006   0.25089   0.00000  Uiso   1.00
C511   C     0.45303   0.56358   0.40657   0.00000  Uiso   1.00
C512   C     0.43066   0.53109   0.39176   0.00000  Uiso   1.00
C513   C     0.45006   0.59770   0.39171   0.00000  Uiso   1.00
C514   C     0.47422   0.63425   0.35357   0.00000  Uiso   1.00
C515   C     0.50605   0.64334   0.33589   0.00000  Uiso   1.00
C516   C     0.47809   0.56394   0.43545   0.00000  Uiso   1.00
C517   C     0.48048   0.53226   0.44958   0.00000  Uiso   1.00
C518   C     0.43314   0.49914   0.40571   0.00000  Uiso   1.00
H519   H     0.49567   0.58875   0.44703   0.00000  Uiso   1.00
H520   H     0.49970   0.53269   0.47198   0.00000  Uiso   1.00
H521   H     0.46045   0.47566   0.44608   0.00000  Uiso   1.00
H522   H     0.41142   0.53068   0.36932   0.00000  Uiso   1.00
H523   H     0.44937   0.62076   0.41275   0.00000  Uiso   1.00
C524   C     0.52432   0.67373   0.28698   0.00000  Uiso   1.00
C525   C     0.49702   0.66892   0.31077   0.00000  Uiso   1.00
H526   H     0.45072   0.62440   0.33352   0.00000  Uiso   1.00
H527   H     0.52897   0.65686   0.35536   0.00000  Uiso   1.00
H528   H     0.51280   0.61771   0.32181   0.00000  Uiso   1.00
H529   H     0.46963   0.65932   0.37037   0.00000  Uiso   1.00
H530   H     0.42502   0.59408   0.37347   0.00000  Uiso   1.00
H531   H     0.54974   0.68777   0.30232   0.00000  Uiso   1.00
H532   H     0.52777   0.64641   0.27343   0.00000  Uiso   1.00
N533   N     0.51144   0.69556   0.26196   0.00000  Uiso   1.00
N534   N     0.48028   0.60575   0.37406   0.00000  Uiso   1.00
C535   C     0.45813   0.49997   0.43483   0.00000  Uiso   1.00
loop_
_geom_bond_atom_site_label_1
_geom_bond_atom_site_label_2
_geom_bond_distance
_geom_bond_site_symmetry_2
_ccdc_geom_bond_type
Y0     O10     2.261   .     S
Y0     O12     2.260   .     S
Y0     O13     2.264   .     S
Y0     O14     2.273   .     S
Y0     O15     2.251   .     S
Y0     O17     2.277   .     S
Y1     O8      2.255   .     S
Y1     O9      2.267   .     S
Y1     O11     2.254   .     S
Y1     O16     2.277   .     S
Y1     O18     2.260   .     S
Y1     O19     2.262   .     S
C2     O8      1.260   .     A
C2     O9      1.262   .     A
C2     C480    1.478   .     S
C3     O10     1.271   .     A
C3     O11     1.271   .     A
C3     C426    1.467   .     S
C4     O12     1.255   .     A
C4     O13     1.260   .     A
C4     C312    1.468   .     S
C5     O14     1.262   .     A
C5     O15     1.256   .     A
C5     C290    1.474   .     S
C6     O16     1.277   .     A
C6     O17     1.276   .     A
C6     C100    1.486   .     S
C7     O18     1.261   .     A
C7     O19     1.261   .     A
C7     C404    1.478   .     S
Y20    O30     2.282   .     S
Y20    O32     2.254   .     S
Y20    O33     2.257   .     S
Y20    O34     2.260   .     S
Y20    O35     2.251   .     S
Y20    O37     2.264   .     S
Y21    O28     2.256   .     S
Y21    O29     2.257   .     S
Y21    O31     2.252   .     S
Y21    O36     2.268   .     S
Y21    O38     2.253   .     S
Y21    O39     2.256   .     S
C22    O28     1.261   .     A
C22    O29     1.263   .     A
C22    C464    1.474   .     S
C23    O30     1.271   .     A
C23    O31     1.268   .     A
C23    C252    1.481   .     S
C24    O32     1.254   .     A
C24    O33     1.258   .     A
C24    C502    1.467   .     S
C25    O34     1.261   .     A
C25    O35     1.257   .     A
C25    C138    1.468   .     S
C26    O36     1.275   .     A
C26    O37     1.273   .     A
C26    C84     1.474   .     S
C27    O38     1.262   .     A
C27    O39     1.263   .     A
C27    C214    1.475   .     S
Y40    O50     2.250   .     S
Y40    O52     2.264   .     S
Y40    O53     2.246   .     S
Y40    O54     2.254   .     S
Y40    O55     2.250   .     S
Y40    O57     2.244   .     S
Y41    O48     2.275   .     S
Y41    O49     2.265   .     S
Y41    O51     2.283   .     S
Y41    O56     2.268   .     S
Y41    O58     2.250   .     S
Y41    O59     2.279   .     S
C42    O48     1.258   .     A
C42    O49     1.257   .     A
C42    C388    1.475   .     S
C43    O50     1.271   .     A
C43    O51     1.280   .     A
C43    C236    1.480   .     S
C44    O52     1.266   .     A
C44    O53     1.263   .     A
C44    C366    1.475   .     S
C45    O54     1.262   .     A
C45    O55     1.266   .     A
C45    C160    1.472   .     S
C46    O56     1.268   .     A
C46    O57     1.272   .     A
C46    C442    1.488   .     S
C47    O58     1.258   .     A
C47    O59     1.263   .     A
C47    C198    1.482   .     S
Y60    O70     2.231   .     S
Y60    O72     2.265   .     S
Y60    O73     2.244   .     S
Y60    O74     2.259   .     S
Y60    O75     2.260   .     S
Y60    O77     2.232   .     S
Y61    O68     2.261   .     S
Y61    O69     2.263   .     S
Y61    O71     2.260   .     S
Y61    O76     2.241   .     S
Y61    O78     2.253   .     S
Y61    O79     2.253   .     S
C62    O68     1.256   .     A
C62    O69     1.259   .     A
C62    C518    1.472   .     S
C63    O70     1.274   .     A
C63    O71     1.279   .     A
C63    C274    1.478   .     S
C64    O72     1.265   .     A
C64    O73     1.259   .     A
C64    C176    1.473   .     S
C65    O74     1.260   .     A
C65    O75     1.262   .     A
C65    C350    1.476   .     S
C66    O76     1.264   .     A
C66    O77     1.261   .     A
C66    C122    1.459   .     S
C67    O78     1.263   .     A
C67    O79     1.263   .     A
C67    C328    1.475   .     S
C80    C81     1.403   .     A
C80    C85     1.405   .     A
C80    C86     1.502   .     S
C81    C82     1.397   .     A
C81    H87     1.083   .     S
C82    C83     1.397   .     A
C82    H88     1.082   .     S
C83    C84     1.404   .     A
C83    H89     1.083   .     S
C84    C85     1.405   .     A
C85    H90     1.084   .     S
C86    H91     1.113   .     S
C86    H92     1.113   .     S
C86    N115    1.462   .     S
C93    C94     1.401   .     A
C93    C95     1.504   .     S
C93    C98     1.401   .     A
C94    C100    1.398   .     A
C94    H104    1.066   .     S
C95    H105    1.114   .     S
C95    H112    1.114   .     S
C95    N116    1.462   .     S
C96    C97     1.521   .     S
C96    H108    1.114   .     S
C96    H111    1.112   .     S
C96    N116    1.464   .     S
C97    H109    1.111   .     S
C97    C107    1.525   1_556 S
C97    H110    1.112   1_556 S
C98    C99     1.397   .     A
C98    H101    1.083   .     S
C99    H102    1.082   .     S
C99    C117    1.400   .     A
C100   C117    1.408   .     A
H103   C117    1.083   .     S
C106   C107    1.519   .     S
C106   H113    1.112   .     S
C106   H114    1.113   .     S
C106   N115    1.461   .     S
C107   C97     1.525   1_554 S
H110   C97     1.112   1_554 S
C118   C119    1.405   .     A
C118   C123    1.402   .     A
C118   C124    1.503   .     S
C119   C120    1.398   .     A
C119   H125    1.083   .     S
C120   C121    1.397   .     A
C120   H126    1.082   .     S
C121   C122    1.401   .     A
C121   H127    1.083   .     S
C122   C123    1.400   .     A
C123   H128    1.084   .     S
C124   H129    1.113   .     S
C124   H130    1.114   .     S
C124   N153    1.462   .     S
C131   C132    1.403   .     A
C131   C136    1.404   .     A
C131   C133    1.500   1_565 S
C132   C138    1.401   .     A
C132   H142    1.084   .     S
C133   H143    1.113   .     S
C133   H150    1.113   .     S
C133   N154    1.462   .     S
C133   C131    1.500   1_545 S
C134   C135    1.522   .     S
C134   H146    1.114   .     S
C134   H149    1.114   .     S
C134   N154    1.463   .     S
C135   C145    1.525   .     S
C135   H147    1.112   .     S
C135   H148    1.112   .     S
C136   C137    1.397   .     A
C136   H139    1.083   .     S
C137   H140    1.082   .     S
C137   C155    1.397   .     A
C138   C155    1.404   .     A
H141   C155    1.083   .     S
C144   C145    1.520   .     S
C144   H151    1.112   .     S
C144   H152    1.113   .     S
C144   N153    1.462   .     S
C156   C157    1.405   .     A
C156   C161    1.402   .     A
C156   C162    1.500   .     S
C157   C158    1.397   .     A
C157   H163    1.084   .     S
C158   C159    1.398   .     A
C158   H164    1.084   .     S
C159   C160    1.407   .     A
C159   H165    1.084   .     S
C160   C161    1.402   .     A
C161   H166    1.084   .     S
C162   H167    1.113   .     S
C162   H168    1.111   .     S
C162   N191    1.465   .     S
C169   C170    1.407   .     A
C169   C171    1.504   .     S
C169   C174    1.404   .     A
C170   C176    1.405   .     A
C170   H180    1.084   .     S
C171   H181    1.114   .     S
C171   H188    1.111   .     S
C171   N192    1.467   .     S
C172   C173    1.523   .     S
C172   H184    1.112   .     S
C172   H187    1.113   .     S
C172   N192    1.466   .     S
C173   C183    1.524   .     S
C173   H185    1.113   .     S
C173   H186    1.113   .     S
C174   C175    1.395   .     A
C174   H177    1.081   .     S
C175   H178    1.083   .     S
C175   C193    1.395   .     A
C176   C193    1.405   .     A
H179   C193    1.083   .     S
C182   C183    1.519   .     S
C182   H189    1.112   .     S
C182   H190    1.113   .     S
C182   N191    1.460   .     S
C194   C199    1.412   .     A
C194   C200    1.506   .     S
C194   C195    1.404   1_545 A
C195   C196    1.392   .     A
C195   H201    1.083   .     S
C195   C194    1.404   1_565 A
C196   H202    1.082   .     S
C196   C197    1.394   1_565 A
C197   C198    1.406   .     A
C197   H203    1.082   .     S
C197   C196    1.394   1_545 A
C198   C199    1.409   .     A
C199   H204    1.083   .     S
C200   H206    1.111   .     S
C200   H205    1.113   1_545 S
C200   N229    1.468   1_545 S
H205   C200    1.113   1_565 S
C207   C208    1.406   .     A
C207   C209    1.504   .     S
C207   C212    1.403   .     A
C208   H218    1.083   .     S
C208   C214    1.405   1_556 A
C209   H219    1.112   .     S
C209   H226    1.112   .     S
C209   N230    1.464   .     S
C210   C211    1.527   .     S
C210   H222    1.114   .     S
C210   H225    1.113   .     S
C210   N230    1.465   .     S
C211   C221    1.530   .     S
C211   H224    1.112   .     S
C211   H223    1.112   1_565 S
C212   H215    1.083   .     S
C212   C213    1.396   1_556 A
C213   C231    1.397   .     A
C213   C212    1.396   1_554 A
C213   H216    1.082   1_565 S
C214   C231    1.404   .     A
C214   C208    1.405   1_554 A
H216   C213    1.082   1_545 S
H217   C231    1.083   .     S
C220   C221    1.527   .     S
C220   H228    1.113   .     S
C220   N229    1.464   .     S
C220   H227    1.111   1_565 S
H223   C211    1.112   1_545 S
H227   C220    1.111   1_545 S
N229   C200    1.468   1_565 S
C232   C233    1.404   .     A
C232   C237    1.409   .     A
C232   C238    1.510   .     S
C233   C234    1.397   .     A
C233   H239    1.083   .     S
C234   C235    1.398   .     A
C234   H240    1.083   .     S
C235   C236    1.405   .     A
C235   H241    1.083   .     S
C236   C237    1.409   .     A
C237   H242    1.083   .     S
C238   H243    1.113   .     S
C238   H244    1.113   .     S
C238   N267    1.467   .     S
C245   C246    1.412   .     A
C245   C247    1.510   .     S
C245   C250    1.403   .     A
C246   C252    1.410   .     A
C246   H256    1.082   .     S
C247   H257    1.114   .     S
C247   H264    1.113   .     S
C247   N268    1.470   .     S
C248   C249    1.532   .     S
C248   H260    1.113   .     S
C248   H263    1.113   .     S
C248   N268    1.469   .     S
C249   C259    1.533   .     S
C249   H261    1.112   .     S
C249   H262    1.112   .     S
C250   C251    1.396   .     A
C250   H253    1.082   .     S
C251   H254    1.083   .     S
C251   C269    1.396   .     A
C252   C269    1.399   .     A
H255   C269    1.078   .     S
C258   H265    1.112   .     S
C258   H266    1.112   .     S
C258   N267    1.466   .     S
C258   C259    1.527   1_545 S
C259   C258    1.527   1_565 S
C270   C271    1.404   .     A
C270   C275    1.404   .     A
C270   C276    1.503   .     S
C271   C272    1.394   .     A
C271   H277    1.082   .     S
C272   C273    1.394   .     A
C272   H278    1.083   .     S
C273   C274    1.407   .     A
C273   H279    1.082   .     S
C274   C275    1.407   .     A
C275   H280    1.083   .     S
C276   H281    1.113   .     S
C276   H282    1.113   .     S
C276   N305    1.463   .     S
C283   C284    1.406   .     A
C283   C285    1.501   .     S
C283   C288    1.404   .     A
C284   C290    1.404   .     A
C284   H294    1.083   .     S
C285   H295    1.113   .     S
C285   H302    1.111   .     S
C285   N306    1.466   .     S
C286   C287    1.524   .     S
C286   H298    1.114   .     S
C286   H301    1.114   .     S
C286   N306    1.463   .     S
C287   C297    1.524   .     S
C287   H299    1.111   .     S
C287   H300    1.112   .     S
C288   C289    1.395   .     A
C288   H291    1.083   .     S
C289   H292    1.082   .     S
C289   C307    1.395   .     A
C290   C307    1.406   .     A
H293   C307    1.083   .     S
C296   C297    1.519   .     S
C296   H303    1.111   .     S
C296   H304    1.113   .     S
C296   N305    1.461   .     S
C308   C309    1.404   .     A
C308   C314    1.501   .     S
C308   C313    1.403   1_554 A
C309   H315    1.083   .     S
C309   C310    1.397   1_554 A
C310   C311    1.396   .     A
C310   H316    1.082   .     S
C310   C309    1.397   1_556 A
C311   C312    1.404   .     A
C311   H317    1.083   .     S
C312   C313    1.402   .     A
C313   H318    1.084   .     S
C313   C308    1.403   1_556 A
C314   H319    1.114   .     S
C314   H320    1.112   .     S
C314   N343    1.464   .     S
C321   C322    1.406   .     A
C321   C323    1.505   .     S
C321   C326    1.404   .     A
C322   C328    1.407   .     A
C322   H332    1.083   .     S
C323   H333    1.113   .     S
C323   H340    1.113   .     S
C323   N344    1.464   .     S
C324   C325    1.525   .     S
C324   H336    1.112   .     S
C324   H339    1.114   .     S
C324   N344    1.463   .     S
C325   C335    1.526   .     S
C325   H337    1.112   .     S
C325   H338    1.112   .     S
C326   C327    1.395   .     A
C326   H329    1.082   .     S
C327   H330    1.082   .     S
C327   C345    1.396   .     A
C328   C345    1.404   .     A
H331   C345    1.082   .     S
C334   C335    1.522   .     S
C334   H341    1.112   .     S
C334   H342    1.113   .     S
C334   N343    1.461   .     S
C346   C347    1.403   .     A
C346   C351    1.406   .     A
C346   C352    1.504   .     S
C347   C348    1.396   .     A
C347   H353    1.083   .     S
C348   C349    1.396   .     A
C348   H354    1.082   .     S
C349   C350    1.403   .     A
C349   H355    1.082   .     S
C350   C351    1.407   .     A
C351   H356    1.083   .     S
C352   H357    1.113   .     S
C352   H358    1.113   .     S
C352   N381    1.463   .     S
C359   C360    1.409   .     A
C359   C361    1.506   .     S
C359   C364    1.405   .     A
C360   H370    1.084   .     S
C360   C366    1.408   1_455 A
C361   H371    1.115   .     S
C361   H378    1.110   .     S
C361   N382    1.467   .     S
C362   C363    1.523   .     S
C362   H374    1.113   .     S
C362   H377    1.114   .     S
C362   N382    1.465   .     S
C363   C373    1.525   .     S
C363   H375    1.113   .     S
C363   H376    1.112   .     S
C364   C365    1.395   .     A
C364   H367    1.082   .     S
C365   H368    1.082   .     S
C365   C383    1.394   1_455 A
C366   C383    1.404   .     A
C366   C360    1.408   1_655 A
H369   C383    1.083   .     S
C372   C373    1.521   .     S
C372   H379    1.113   .     S
C372   H380    1.113   .     S
C372   N381    1.461   .     S
C383   C365    1.394   1_655 A
C384   C385    1.404   .     A
C384   C389    1.407   .     A
C384   C390    1.508   1_545 S
C385   C386    1.399   .     A
C385   H391    1.083   .     S
C386   C387    1.400   .     A
C386   H392    1.083   .     S
C387   C388    1.403   .     A
C387   H393    1.083   .     S
C388   C389    1.406   .     A
C389   H394    1.084   1_545 S
C390   H395    1.113   .     S
C390   H396    1.114   .     S
C390   N419    1.467   .     S
C390   C384    1.508   1_565 S
H394   C389    1.084   1_565 S
C397   C398    1.406   .     A
C397   C399    1.507   .     S
C397   C402    1.405   1_455 A
C398   C404    1.407   .     A
C398   H408    1.084   .     S
C399   H409    1.113   .     S
C399   H416    1.112   .     S
C399   N420    1.465   .     S
C400   H412    1.114   .     S
C400   H415    1.113   .     S
C400   N420    1.466   .     S
C400   C401    1.527   1_455 S
C401   C411    1.532   .     S
C401   H413    1.113   .     S
C401   H414    1.113   .     S
C401   C400    1.527   1_655 S
C402   C403    1.397   .     A
C402   H405    1.083   .     S
C402   C397    1.405   1_655 A
C403   H406    1.083   .     S
C403   C421    1.397   1_655 A
C404   C421    1.405   .     A
H407   C421    1.083   .     S
C410   C411    1.525   .     S
C410   H417    1.112   .     S
C410   H418    1.113   .     S
C410   N419    1.466   .     S
C421   C403    1.397   1_455 A
C422   C423    1.403   .     A
C422   C427    1.408   .     A
C422   C428    1.504   1_455 S
C423   C424    1.395   .     A
C423   H429    1.083   1_455 S
C424   C425    1.396   .     A
C424   H430    1.082   .     S
C425   C426    1.402   .     A
C425   H431    1.083   .     S
C426   C427    1.404   .     A
C427   H432    1.083   .     S
C428   H433    1.112   .     S
C428   H434    1.111   .     S
C428   C422    1.504   1_655 S
C428   N457    1.466   1_655 S
H429   C423    1.083   1_655 S
C435   C436    1.412   .     A
C435   C440    1.404   .     A
C435   C437    1.511   1_655 S
C436   C442    1.414   .     A
C436   H446    1.083   .     S
C437   H447    1.114   .     S
C437   H454    1.110   .     S
C437   C435    1.511   1_455 S
C437   N458    1.472   1_455 S
C438   H450    1.112   .     S
C438   H453    1.113   .     S
C438   C439    1.528   1_455 S
C438   N458    1.469   1_455 S
C439   H451    1.111   .     S
C439   H452    1.111   .     S
C439   C438    1.528   1_655 S
C439   C449    1.529   1_655 S
C440   C441    1.392   .     A
C440   H443    1.081   .     S
C441   H444    1.082   .     S
C441   C459    1.393   .     A
C442   C459    1.399   .     A
H445   C459    1.069   .     S
C448   H455    1.113   .     S
C448   H456    1.113   .     S
C448   C449    1.525   1_655 S
C448   N457    1.463   1_655 S
C449   C439    1.529   1_455 S
C449   C448    1.525   1_455 S
N457   C428    1.466   1_455 S
N457   C448    1.463   1_455 S
N458   C437    1.472   1_655 S
N458   C438    1.469   1_655 S
C460   C461    1.403   .     A
C460   C465    1.404   .     A
C460   C466    1.502   .     S
C461   C462    1.397   .     A
C461   H467    1.083   .     S
C462   C463    1.397   .     A
C462   H468    1.082   .     S
C463   C464    1.404   .     A
C463   H469    1.083   .     S
C464   C465    1.406   .     A
C465   H470    1.083   .     S
C466   H471    1.114   .     S
C466   H472    1.110   .     S
C466   N495    1.467   .     S
C473   C474    1.407   .     A
C473   C475    1.506   .     S
C473   C478    1.406   .     A
C474   C480    1.406   1_655 A
C474   H484    1.083   1_655 S
C475   H485    1.115   .     S
C475   H492    1.111   .     S
C475   N496    1.468   .     S
C476   C477    1.523   .     S
C476   H488    1.113   .     S
C476   H491    1.114   .     S
C476   N496    1.465   .     S
C477   H489    1.112   .     S
C477   C487    1.526   1_556 S
C477   H490    1.111   1_556 S
C478   C479    1.395   .     A
C478   H481    1.083   .     S
C479   H482    1.083   .     S
C479   C497    1.395   1_655 A
C480   C497    1.404   .     A
C480   C474    1.406   1_455 A
H483   C497    1.080   .     S
H484   C474    1.083   1_455 S
C486   C487    1.522   .     S
C486   H493    1.113   .     S
C486   H494    1.112   .     S
C486   N495    1.462   .     S
C487   C477    1.526   1_554 S
H490   C477    1.111   1_554 S
C497   C479    1.395   1_455 A
C498   C499    1.403   .     A
C498   C503    1.401   .     A
C498   C504    1.499   .     S
C499   C500    1.397   .     A
C499   H505    1.083   .     S
C500   C501    1.396   .     A
C500   H506    1.082   .     S
C501   C502    1.404   .     A
C501   H507    1.082   .     S
C502   C503    1.402   .     A
C503   H508    1.084   .     S
C504   H509    1.113   .     S
C504   H510    1.113   .     S
C504   N533    1.461   .     S
C511   C512    1.403   .     A
C511   C513    1.499   .     S
C511   C516    1.402   .     A
C512   C518    1.402   .     A
C512   H522    1.084   .     S
C513   H523    1.112   .     S
C513   H530    1.114   .     S
C513   N534    1.463   .     S
C514   C515    1.523   .     S
C514   H526    1.114   .     S
C514   H529    1.113   .     S
C514   N534    1.462   .     S
C515   C525    1.525   .     S
C515   H527    1.112   .     S
C515   H528    1.113   .     S
C516   C517    1.397   .     A
C516   H519    1.083   .     S
C517   H520    1.082   .     S
C517   C535    1.397   .     A
C518   C535    1.405   .     A
H521   C535    1.083   .     S
C524   C525    1.518   .     S
C524   H531    1.112   .     S
C524   H532    1.113   .     S
C524   N533    1.459   .     S
