data_lcy+N505+E161
_audit_creation_date              2025-01-21
_audit_creation_method            'Materials Studio'
_symmetry_space_group_name_H-M    'P1'
_symmetry_Int_Tables_number       1
_symmetry_cell_setting            triclinic
loop_
_symmetry_equiv_pos_as_xyz
  x,y,z
_cell_length_a                    41.0765
_cell_length_b                    40.1533
_cell_length_c                    39.1166
_cell_angle_alpha                 92.4890
_cell_angle_beta                  92.9661
_cell_angle_gamma                 94.9169
loop_
_atom_site_label
_atom_site_type_symbol
_atom_site_fract_x
_atom_site_fract_y
_atom_site_fract_z
_atom_site_U_iso_or_equiv
_atom_site_adp_type
_atom_site_occupancy
Yb0    Yb    0.13743   0.59490   0.82440   0.00000  Uiso   1.00
Yb1    Yb    0.12536   0.67206   0.91799   0.00000  Uiso   1.00
C2     C     0.07861   0.68970   0.94845   0.00000  Uiso   1.00
O3     O     0.09737   0.56424   0.83850   0.00000  Uiso   1.00
O4     O     0.10049   0.58172   0.78591   0.00000  Uiso   1.00
O5     O     0.11571   0.63969   0.84143   0.00000  Uiso   1.00
O6     O     0.09863   0.68146   0.87159   0.00000  Uiso   1.00
O7     O     0.16398   0.55883   0.80227   0.00000  Uiso   1.00
O8     O     0.17677   0.61247   0.79556   0.00000  Uiso   1.00
O9     O     0.17045   0.69423   0.90523   0.00000  Uiso   1.00
O10    O     0.16319   0.67571   0.95675   0.00000  Uiso   1.00
C11    C     0.08654   0.56176   0.80699   0.00000  Uiso   1.00
O12    O     0.16812   0.59204   0.87097   0.00000  Uiso   1.00
O13    O     0.13804   0.62603   0.89529   0.00000  Uiso   1.00
O14    O     0.10313   0.71074   0.94250   0.00000  Uiso   1.00
C15    C     0.10041   0.66587   0.84280   0.00000  Uiso   1.00
O16    O     0.08150   0.65847   0.94090   0.00000  Uiso   1.00
C17    C     0.18253   0.58177   0.78889   0.00000  Uiso   1.00
C18    C     0.18250   0.68964   0.93539   0.00000  Uiso   1.00
C19    C     0.16064   0.60687   0.89835   0.00000  Uiso   1.00
Yb20   Yb    0.65933   0.88658   0.10519   0.00000  Uiso   1.00
Yb21   Yb    0.56809   0.89581   0.17732   0.00000  Uiso   1.00
C22    C     0.53935   0.94431   0.19461   0.00000  Uiso   1.00
O23    O     0.64338   0.92630   0.07889   0.00000  Uiso   1.00
O24    O     0.69438   0.92732   0.10002   0.00000  Uiso   1.00
O25    O     0.64345   0.90699   0.15407   0.00000  Uiso   1.00
O26    O     0.61360   0.92256   0.19655   0.00000  Uiso   1.00
O27    O     0.68117   0.86372   0.06399   0.00000  Uiso   1.00
O28    O     0.69038   0.84816   0.11635   0.00000  Uiso   1.00
O29    O     0.57411   0.85111   0.19960   0.00000  Uiso   1.00
O30    O     0.52865   0.85847   0.16933   0.00000  Uiso   1.00
C31    C     0.67330   0.93877   0.07884   0.00000  Uiso   1.00
O32    O     0.61535   0.85229   0.09422   0.00000  Uiso   1.00
O33    O     0.59245   0.87858   0.13411   0.00000  Uiso   1.00
O34    O     0.54285   0.92006   0.21470   0.00000  Uiso   1.00
C35    C     0.64157   0.91982   0.18432   0.00000  Uiso   1.00
O36    O     0.54944   0.94074   0.16395   0.00000  Uiso   1.00
C37    C     0.69686   0.84577   0.08437   0.00000  Uiso   1.00
C38    C     0.54551   0.83928   0.18765   0.00000  Uiso   1.00
C39    C     0.58935   0.85753   0.10906   0.00000  Uiso   1.00
Yb40   Yb    0.89878   0.06857   0.65531   0.00000  Uiso   1.00
Yb41   Yb    0.86914   0.15102   0.60464   0.00000  Uiso   1.00
C42    C     0.82105   0.17783   0.58322   0.00000  Uiso   1.00
O43    O     0.85782   0.08618   0.67769   0.00000  Uiso   1.00
O44    O     0.86051   0.03260   0.66678   0.00000  Uiso   1.00
O45    O     0.87860   0.06764   0.60235   0.00000  Uiso   1.00
O46    O     0.84062   0.10387   0.60293   0.00000  Uiso   1.00
O47    O     0.92431   0.05497   0.70000   0.00000  Uiso   1.00
O48    O     0.93674   0.03747   0.64877   0.00000  Uiso   1.00
O49    O     0.91207   0.13938   0.58093   0.00000  Uiso   1.00
O50    O     0.90572   0.19073   0.59921   0.00000  Uiso   1.00
C51    C     0.84557   0.05605   0.68114   0.00000  Uiso   1.00
O52    O     0.93162   0.11450   0.65561   0.00000  Uiso   1.00
O53    O     0.88753   0.14054   0.65433   0.00000  Uiso   1.00
O54    O     0.84154   0.16648   0.56262   0.00000  Uiso   1.00
C55    C     0.85292   0.07902   0.58919   0.00000  Uiso   1.00
O56    O     0.82791   0.17596   0.61564   0.00000  Uiso   1.00
C57    C     0.94124   0.03620   0.68153   0.00000  Uiso   1.00
C58    C     0.92371   0.17030   0.58414   0.00000  Uiso   1.00
C59    C     0.91800   0.14155   0.66017   0.00000  Uiso   1.00
Yb60   Yb    0.34530   0.39691   0.32742   0.00000  Uiso   1.00
Yb61   Yb    0.37876   0.34909   0.41081   0.00000  Uiso   1.00
C62    C     0.42857   0.32546   0.43298   0.00000  Uiso   1.00
O63    O     0.39042   0.42266   0.34550   0.00000  Uiso   1.00
O64    O     0.37893   0.41042   0.29085   0.00000  Uiso   1.00
O65    O     0.36113   0.34758   0.32563   0.00000  Uiso   1.00
O66    O     0.40151   0.35814   0.36426   0.00000  Uiso   1.00
O67    O     0.32131   0.43903   0.31443   0.00000  Uiso   1.00
O68    O     0.30437   0.38848   0.29324   0.00000  Uiso   1.00
O69    O     0.33199   0.32507   0.39646   0.00000  Uiso   1.00
O70    O     0.34872   0.33425   0.45046   0.00000  Uiso   1.00
C71    C     0.39808   0.42648   0.31422   0.00000  Uiso   1.00
O72    O     0.31757   0.39196   0.37297   0.00000  Uiso   1.00
O73    O     0.36030   0.39767   0.41087   0.00000  Uiso   1.00
O74    O     0.40493   0.30695   0.41699   0.00000  Uiso   1.00
C75    C     0.38790   0.34036   0.33939   0.00000  Uiso   1.00
O76    O     0.42461   0.35692   0.43751   0.00000  Uiso   1.00
C77    C     0.30264   0.42034   0.29245   0.00000  Uiso   1.00
C78    C     0.32587   0.32224   0.42833   0.00000  Uiso   1.00
C79    C     0.33050   0.40129   0.40262   0.00000  Uiso   1.00
H80    H     0.20495   0.73655   0.98269   0.00000  Uiso   1.00
C81    C     0.55746   0.84071   0.09617   0.00000  Uiso   1.00
C82    C     0.55615   0.80969   0.07823   0.00000  Uiso   1.00
C83    C     0.52707   0.79581   0.06079   0.00000  Uiso   1.00
C84    C     0.49848   0.81316   0.06167   0.00000  Uiso   1.00
C85    C     0.49969   0.84447   0.08001   0.00000  Uiso   1.00
C86    C     0.52926   0.85803   0.09676   0.00000  Uiso   1.00
C87    C     0.52720   0.76322   0.04027   0.00000  Uiso   1.00
C88    C     0.46991   0.86394   0.08108   0.00000  Uiso   1.00
C89    C     0.45086   0.77280   0.05993   0.00000  Uiso   1.00
C90    C     0.42135   0.75765   0.04438   0.00000  Uiso   1.00
C91    C     0.40845   0.77066   0.01423   0.00000  Uiso   1.00
C92    C     0.42595   0.79745   0.99926   0.00000  Uiso   1.00
C93    C     0.45650   0.81047   0.01468   0.00000  Uiso   1.00
C94    C     0.40429   0.73021   0.05857   0.00000  Uiso   1.00
C95    C     0.37433   0.71641   0.04354   0.00000  Uiso   1.00
C96    C     0.36055   0.73003   0.01430   0.00000  Uiso   1.00
C97    C     0.37772   0.75715   0.99941   0.00000  Uiso   1.00
C98    C     0.36394   0.77112   0.97019   0.00000  Uiso   1.00
C99    C     0.38154   0.79795   0.95542   0.00000  Uiso   1.00
C100   C     0.41235   0.81074   0.96960   0.00000  Uiso   1.00
C101   C     0.32960   0.71777   1.00004   0.00000  Uiso   1.00
C102   C     0.33257   0.75829   0.95708   0.00000  Uiso   1.00
C103   C     0.28242   0.72220   0.96163   0.00000  Uiso   1.00
C104   C     0.30018   0.67900   0.91778   0.00000  Uiso   1.00
C105   C     0.24143   0.68642   0.92694   0.00000  Uiso   1.00
C106   C     0.26467   0.76422   1.00591   0.00000  Uiso   1.00
C107   C     0.22448   0.72551   0.96989   0.00000  Uiso   1.00
C108   C     0.25711   0.73690   0.97840   0.00000  Uiso   1.00
C109   C     0.27443   0.69651   0.93579   0.00000  Uiso   1.00
C110   C     0.21669   0.70025   0.94461   0.00000  Uiso   1.00
H111   H     0.28062   0.78500   0.99616   0.00000  Uiso   1.00
N112   N     0.46801   0.79844   0.04491   0.00000  Uiso   1.00
N113   N     0.31593   0.73240   0.97246   0.00000  Uiso   1.00
H114   H     0.27709   0.75414   1.02859   0.00000  Uiso   1.00
H115   H     0.57820   0.79674   0.07707   0.00000  Uiso   1.00
H116   H     0.53067   0.88274   0.10938   0.00000  Uiso   1.00
H117   H     0.55199   0.75406   1.04068   0.00000  Uiso   1.00
H118   H     0.51040   0.74371   0.05092   0.00000  Uiso   1.00
H119   H     0.51935   0.76667   1.01316   0.00000  Uiso   1.00
H120   H     0.44881   0.84803   0.08987   0.00000  Uiso   1.00
H121   H     0.47414   0.88649   0.09877   0.00000  Uiso   1.00
H122   H     0.46353   0.87248   0.05517   0.00000  Uiso   1.00
O123   O     0.47461   0.83545   0.99951   0.00000  Uiso   1.00
O124   O     0.46208   0.76221   0.09087   0.00000  Uiso   1.00
H125   H     0.41397   0.71929   0.08135   0.00000  Uiso   1.00
H126   H     0.42517   0.83144   0.95759   0.00000  Uiso   1.00
H127   H     0.36176   0.69537   0.05525   0.00000  Uiso   1.00
H128   H     0.29954   0.68508   0.89038   0.00000  Uiso   1.00
H129   H     0.32516   0.68621   0.92921   0.00000  Uiso   1.00
H130   H     0.23494   0.66707   0.90694   0.00000  Uiso   1.00
H131   H     0.37152   0.80926   0.93300   0.00000  Uiso   1.00
H132   H     0.24201   0.77465   1.01425   0.00000  Uiso   1.00
O133   O     0.31804   0.77244   0.92954   0.00000  Uiso   1.00
O134   O     0.31229   0.69181   0.01473   0.00000  Uiso   1.00
H135   H     0.29542   0.65144   0.91929   0.00000  Uiso   1.00
H136   H     0.55029   0.00524   0.16962   0.00000  Uiso   1.00
C137   C     0.40155   0.30983   0.32832   0.00000  Uiso   1.00
C138   C     0.39180   0.27968   0.34278   0.00000  Uiso   1.00
C139   C     0.40554   0.25036   0.33281   0.00000  Uiso   1.00
C140   C     0.42813   0.25126   0.30678   0.00000  Uiso   1.00
C141   C     0.43741   0.28171   0.29170   0.00000  Uiso   1.00
C142   C     0.42424   0.31095   0.30301   0.00000  Uiso   1.00
C143   C     0.39632   0.21841   0.35010   0.00000  Uiso   1.00
C144   C     0.46104   0.28313   0.26361   0.00000  Uiso   1.00
C145   C     0.42254   0.20076   0.27042   0.00000  Uiso   1.00
C146   C     0.43294   0.16976   0.25998   0.00000  Uiso   1.00
C147   C     0.46234   0.15981   0.27480   0.00000  Uiso   1.00
C148   C     0.48098   0.18106   0.29945   0.00000  Uiso   1.00
C149   C     0.46953   0.21185   0.30913   0.00000  Uiso   1.00
C150   C     0.41453   0.14843   0.23542   0.00000  Uiso   1.00
C151   C     0.42508   0.11745   0.22577   0.00000  Uiso   1.00
C152   C     0.45431   0.10722   0.24043   0.00000  Uiso   1.00
C153   C     0.47307   0.12849   0.26496   0.00000  Uiso   1.00
C154   C     0.50253   0.11853   0.27965   0.00000  Uiso   1.00
C155   C     0.52102   0.14000   0.30411   0.00000  Uiso   1.00
C156   C     0.51032   0.17092   0.31395   0.00000  Uiso   1.00
C157   C     0.46546   0.07626   0.23096   0.00000  Uiso   1.00
C158   C     0.51278   0.08734   0.26923   0.00000  Uiso   1.00
C159   C     0.50604   0.03615   0.23322   0.00000  Uiso   1.00
C160   C     0.47745   0.00495   0.28046   0.00000  Uiso   1.00
C161   C     0.50845   0.97607   0.23648   0.00000  Uiso   1.00
C162   C     0.53580   0.06788   0.18785   0.00000  Uiso   1.00
C163   C     0.53507   0.00542   0.19138   0.00000  Uiso   1.00
C164   C     0.52534   0.03582   0.20443   0.00000  Uiso   1.00
C165   C     0.49766   0.00605   0.24944   0.00000  Uiso   1.00
C166   C     0.52651   0.97546   0.20704   0.00000  Uiso   1.00
H167   H     0.54977   0.08559   0.20697   0.00000  Uiso   1.00
N168   N     0.44063   0.22082   0.29486   0.00000  Uiso   1.00
N169   N     0.49433   0.06710   0.24516   0.00000  Uiso   1.00
H170   H     0.51393   0.07950   0.17778   0.00000  Uiso   1.00
H171   H     0.37363   0.27913   0.36191   0.00000  Uiso   1.00
H172   H     0.43132   0.33463   0.29197   0.00000  Uiso   1.00
H173   H     0.37904   0.22229   0.37054   0.00000  Uiso   1.00
H174   H     0.38449   0.19926   0.33105   0.00000  Uiso   1.00
H175   H     0.41863   0.20898   0.36209   0.00000  Uiso   1.00
H176   H     0.45139   0.26589   0.24177   0.00000  Uiso   1.00
H177   H     0.46482   0.30876   0.25403   0.00000  Uiso   1.00
H178   H     0.48506   0.27569   0.27341   0.00000  Uiso   1.00
O179   O     0.48714   0.23287   0.33328   0.00000  Uiso   1.00
O180   O     0.39379   0.21077   0.25652   0.00000  Uiso   1.00
H181   H     0.39187   0.15556   0.22364   0.00000  Uiso   1.00
H182   H     0.52508   0.18681   0.33297   0.00000  Uiso   1.00
H183   H     0.41030   0.10160   0.20676   0.00000  Uiso   1.00
H184   H     0.49282  -0.00120   0.30312   0.00000  Uiso   1.00
H185   H     0.46704   0.02898   0.28632   0.00000  Uiso   1.00
H186   H     0.50258   0.95315   0.24941   0.00000  Uiso   1.00
H187   H     0.54379   0.13297   0.31572   0.00000  Uiso   1.00
H188   H     0.55172   0.06353   0.16629   0.00000  Uiso   1.00
O189   O     0.54164   0.07735   0.28285   0.00000  Uiso   1.00
O190   O     0.44753   0.05524   0.20701   0.00000  Uiso   1.00
H191   H     0.45672   0.98534   0.27604   0.00000  Uiso   1.00
H192   H     0.45428   0.27032   0.40738   0.00000  Uiso   1.00
C193   C     0.79054   0.19091   0.57033   0.00000  Uiso   1.00
C194   C     0.77244   0.20982   0.59217   0.00000  Uiso   1.00
C195   C     0.74246   0.22075   0.58052   0.00000  Uiso   1.00
C196   C     0.73010   0.21200   0.54667   0.00000  Uiso   1.00
C197   C     0.74841   0.19323   0.52449   0.00000  Uiso   1.00
C198   C     0.77851   0.18293   0.53652   0.00000  Uiso   1.00
C199   C     0.72402   0.24205   0.60405   0.00000  Uiso   1.00
C200   C     0.73597   0.18415   0.48810   0.00000  Uiso   1.00
C201   C     0.69807   0.25052   0.51640   0.00000  Uiso   1.00
C202   C     0.66803   0.26091   0.50412   0.00000  Uiso   1.00
C203   C     0.63883   0.24235   0.51166   0.00000  Uiso   1.00
C204   C     0.64009   0.21349   0.53077   0.00000  Uiso   1.00
C205   C     0.67077   0.20363   0.54182   0.00000  Uiso   1.00
C206   C     0.66651   0.28939   0.48466   0.00000  Uiso   1.00
C207   C     0.63636   0.29930   0.47275   0.00000  Uiso   1.00
C208   C     0.60705   0.28124   0.48053   0.00000  Uiso   1.00
C209   C     0.60828   0.25281   0.50026   0.00000  Uiso   1.00
C210   C     0.57905   0.23500   0.50891   0.00000  Uiso   1.00
C211   C     0.58057   0.20622   0.52793   0.00000  Uiso   1.00
C212   C     0.61077   0.19540   0.53848   0.00000  Uiso   1.00
C213   C     0.57642   0.29103   0.46931   0.00000  Uiso   1.00
C214   C     0.54898   0.24667   0.49845   0.00000  Uiso   1.00
C215   C     0.51715   0.28568   0.46829   0.00000  Uiso   1.00
C216   C     0.52351   0.33047   0.51737   0.00000  Uiso   1.00
C217   C     0.47728   0.32682   0.47335   0.00000  Uiso   1.00
C218   C     0.50873   0.23865   0.42221   0.00000  Uiso   1.00
C219   C     0.46881   0.28243   0.42910   0.00000  Uiso   1.00
C220   C     0.49804   0.26950   0.44026   0.00000  Uiso   1.00
C221   C     0.50606   0.31397   0.48546   0.00000  Uiso   1.00
C222   C     0.45866   0.31136   0.44525   0.00000  Uiso   1.00
H223   H     0.51103   0.21858   0.44058   0.00000  Uiso   1.00
N224   N     0.69892   0.22228   0.53472   0.00000  Uiso   1.00
N225   N     0.54818   0.27397   0.47871   0.00000  Uiso   1.00
H226   H     0.53270   0.24453   0.41093   0.00000  Uiso   1.00
H227   H     0.78171   0.21611   0.61830   0.00000  Uiso   1.00
H228   H     0.79229   0.16801   0.51970   0.00000  Uiso   1.00
H229   H     0.73716   0.24691   0.62956   0.00000  Uiso   1.00
H230   H     0.72107   0.26653   0.59263   0.00000  Uiso   1.00
H231   H     0.69950   0.22933   0.60792   0.00000  Uiso   1.00
H232   H     0.73391   0.20727   0.47387   0.00000  Uiso   1.00
H233   H     0.75274   0.16851   0.47452   0.00000  Uiso   1.00
H234   H     0.71155   0.16990   0.48775   0.00000  Uiso   1.00
O235   O     0.67251   0.17530   0.56005   0.00000  Uiso   1.00
O236   O     0.72673   0.26882   0.51009   0.00000  Uiso   1.00
H237   H     0.68861   0.30408   0.47851   0.00000  Uiso   1.00
H238   H     0.61106   0.17301   0.55294   0.00000  Uiso   1.00
H239   H     0.63608   0.32135   0.45778   0.00000  Uiso   1.00
H240   H     0.50761   0.32665   0.53924   0.00000  Uiso   1.00
H241   H     0.54713   0.32026   0.52394   0.00000  Uiso   1.00
H242   H     0.46909   0.34875   0.48632   0.00000  Uiso   1.00
H243   H     0.55845   0.19188   0.53460   0.00000  Uiso   1.00
H244   H     0.49071   0.22863   0.40137   0.00000  Uiso   1.00
O245   O     0.52031   0.23088   0.50846   0.00000  Uiso   1.00
O246   O     0.57478   0.31821   0.44937   0.00000  Uiso   1.00
H247   H     0.52829   0.35775   0.51408   0.00000  Uiso   1.00
H248   H     0.71163   0.99847   0.07557   0.00000  Uiso   1.00
C249   C     0.81883   0.04906   0.70436   0.00000  Uiso   1.00
C250   C     0.80280   0.01688   0.70556   0.00000  Uiso   1.00
C251   C     0.78358   0.00846   0.73320   0.00000  Uiso   1.00
C252   C     0.78128   0.03237   0.76039   0.00000  Uiso   1.00
C253   C     0.79576   0.06531   0.75816   0.00000  Uiso   1.00
C254   C     0.81372   0.07349   0.72982   0.00000  Uiso   1.00
C255   C     0.76701   0.97364   0.73451   0.00000  Uiso   1.00
C256   C     0.79464   0.09096   0.78733   0.00000  Uiso   1.00
C257   C     0.78915   0.00737   0.81486   0.00000  Uiso   1.00
C258   C     0.77987   1.00111   0.84812   0.00000  Uiso   1.00
C259   C     0.74946   0.01057   0.85822   0.00000  Uiso   1.00
C260   C     0.72842   0.02513   0.83468   0.00000  Uiso   1.00
C261   C     0.73860   0.03049   0.80142   0.00000  Uiso   1.00
C262   C     0.80057   0.98632   0.87164   0.00000  Uiso   1.00
C263   C     0.79128   0.98115   0.90493   0.00000  Uiso   1.00
C264   C     0.76117   0.99081   0.91543   0.00000  Uiso   1.00
C265   C     0.74019   1.00564   0.89203   0.00000  Uiso   1.00
C266   C     0.70989   0.01530   0.90228   0.00000  Uiso   1.00
C267   C     0.68900   0.02968   0.87861   0.00000  Uiso   1.00
C268   C     0.69816   0.03452   0.84515   0.00000  Uiso   1.00
C269   C     0.75098   0.98515   0.94852   0.00000  Uiso   1.00
C270   C     0.70087   1.00940   0.93576   0.00000  Uiso   1.00
C271   C     0.70832   0.98163   0.98879   0.00000  Uiso   1.00
C272   C     0.67910   0.93085   0.95440   0.00000  Uiso   1.00
C273   C     0.67511   0.93990   0.01719   0.00000  Uiso   1.00
C274   C     0.73625   0.03258   0.02238   0.00000  Uiso   1.00
C275   C     0.70463   0.98598   0.05087   0.00000  Uiso   1.00
C276   C     0.71622   0.99936   0.02065   0.00000  Uiso   1.00
C277   C     0.68783   0.95149  -0.01272   0.00000  Uiso   1.00
C278   C     0.68366   0.95658   0.04896   0.00000  Uiso   1.00
H279   H     0.72343   0.05040   1.00671   0.00000  Uiso   1.00
N280   N     0.76880   0.02224   0.79245   0.00000  Uiso   1.00
N281   N     0.72102   0.99380   0.95770   0.00000  Uiso   1.00
H282   H     0.76069   0.02964   0.01240   0.00000  Uiso   1.00
H283   H     0.80655  -0.00206   0.68592   0.00000  Uiso   1.00
H284   H     0.82624   0.09832   0.72928   0.00000  Uiso   1.00
H285   H     0.77004   0.95826   0.71078   0.00000  Uiso   1.00
H286   H     0.77750   0.96085   0.75656   0.00000  Uiso   1.00
H287   H     0.74040   0.97501   0.73747   0.00000  Uiso   1.00
H288   H     0.80611   0.08180   0.81108   0.00000  Uiso   1.00
H289   H     0.80803   0.11524   0.78205   0.00000  Uiso   1.00
H290   H     0.76891   0.09562   0.79172   0.00000  Uiso   1.00
O291   O     0.71869   0.04507   0.77824   0.00000  Uiso   1.00
O292   O     0.81939   0.99968   0.80517   0.00000  Uiso   1.00
H293   H     0.82403   0.97874   0.86446   0.00000  Uiso   1.00
H294   H     0.68152   0.04579   0.82762   0.00000  Uiso   1.00
H295   H     0.80774   0.96954   0.92236   0.00000  Uiso   1.00
H296   H     0.65289   0.93236   0.94682   0.00000  Uiso   1.00
H297   H     0.69391   0.93918   0.93301   0.00000  Uiso   1.00
H298   H     0.65985   0.91636   0.01586   0.00000  Uiso   1.00
H299   H     0.66547   0.03711   0.88582   0.00000  Uiso   1.00
H300   H     0.73978   0.04346   0.04906   0.00000  Uiso   1.00
O301   O     0.67097   1.01761   0.94594   0.00000  Uiso   1.00
O302   O     0.77038   0.96924   0.97112   0.00000  Uiso   1.00
H303   H     0.68317   0.90420   0.95807   0.00000  Uiso   1.00
H304   H     0.65906   0.88701   0.23795   0.00000  Uiso   1.00
C305   C     0.83867   0.06518   0.55566   0.00000  Uiso   1.00
C306   C     0.83707   0.08624   0.52824   0.00000  Uiso   1.00
C307   C     0.82178   0.07483   0.49653   0.00000  Uiso   1.00
C308   C     0.80804   0.04134   0.49190   0.00000  Uiso   1.00
C309   C     0.80962   0.01982   0.51958   0.00000  Uiso   1.00
C310   C     0.82520   0.03189   0.55122   0.00000  Uiso   1.00
C311   C     0.81980   0.09873   0.46809   0.00000  Uiso   1.00
C312   C     0.79386   0.98449   0.51577   0.00000  Uiso   1.00
C313   C     0.81196   0.01271   0.43640   0.00000  Uiso   1.00
C314   C     0.79864   0.00101   0.40375   0.00000  Uiso   1.00
C315   C     0.76617   0.00672   0.39414   0.00000  Uiso   1.00
C316   C     0.74744   0.02363   0.41734   0.00000  Uiso   1.00
C317   C     0.76162   0.03437   0.44997   0.00000  Uiso   1.00
C318   C     0.81701   0.98384   0.38050   0.00000  Uiso   1.00
C319   C     0.80328   0.97234   0.34823   0.00000  Uiso   1.00
C320   C     0.77087   0.97787   0.33834   0.00000  Uiso   1.00
C321   C     0.75233  -0.00469   0.36133   0.00000  Uiso   1.00
C322   C     0.71987   0.00107   0.35168   0.00000  Uiso   1.00
C323   C     0.70153   0.01836   0.37485   0.00000  Uiso   1.00
C324   C     0.71511   0.02941   0.40732   0.00000  Uiso   1.00
C325   C     0.75628   0.96595   0.30623   0.00000  Uiso   1.00
C326   C     0.70639   0.98887   0.31924   0.00000  Uiso   1.00
C327   C     0.70887   0.95607   0.26591   0.00000  Uiso   1.00
C328   C     0.72379   0.00892   0.23395   0.00000  Uiso   1.00
C329   C     0.68709   0.96102   0.20712   0.00000  Uiso   1.00
C330   C     0.69337   0.90373   0.29791   0.00000  Uiso   1.00
C331   C     0.67352   0.91074   0.23694   0.00000  Uiso   1.00
C332   C     0.69241   0.92371   0.26609   0.00000  Uiso   1.00
C333   C     0.70679   0.97442   0.23579   0.00000  Uiso   1.00
C334   C     0.67018   0.92937   0.20773   0.00000  Uiso   1.00
H335   H     0.68411   0.91797   0.31984   0.00000  Uiso   1.00
N336   N     0.79342   0.02901   0.45881   0.00000  Uiso   1.00
N337   N     0.72448   0.97126   0.29743   0.00000  Uiso   1.00
H338   H     0.71891   0.89827   0.30459   0.00000  Uiso   1.00
H339   H     0.84802   0.11170   0.53166   0.00000  Uiso   1.00
H340   H     0.82604   0.01571   0.57265   0.00000  Uiso   1.00
H341   H     0.83335   0.12336   0.47548   0.00000  Uiso   1.00
H342   H     0.83045   0.08833   0.44486   0.00000  Uiso   1.00
H343   H     0.79383   0.10299   0.46208   0.00000  Uiso   1.00
H344   H     0.80480   0.97045   0.49483   0.00000  Uiso   1.00
H345   H     0.79713   0.97086   0.53965   0.00000  Uiso   1.00
H346   H     0.76720   0.98491   0.50963   0.00000  Uiso   1.00
O347   O     0.74351   0.05043   0.47301   0.00000  Uiso   1.00
O348   O     0.84381   0.00790   0.44578   0.00000  Uiso   1.00
H349   H     0.84202   0.97904   0.38723   0.00000  Uiso   1.00
H350   H     0.70015   0.04248   0.42449   0.00000  Uiso   1.00
H351   H     0.81811   0.95893   0.33115   0.00000  Uiso   1.00
H352   H     0.70539   0.02764   0.23367   0.00000  Uiso   1.00
H353   H     0.74183   0.01539   0.25580   0.00000  Uiso   1.00
H354   H     0.68325   0.97622   0.18530   0.00000  Uiso   1.00
H355   H     0.67651   0.02318   0.36807   0.00000  Uiso   1.00
H356   H     0.67802   0.87950   0.29426   0.00000  Uiso   1.00
O357   O     0.67458   0.99380   0.30977   0.00000  Uiso   1.00
O358   O     0.77380   0.94838   0.28381   0.00000  Uiso   1.00
H359   H     0.73716   0.01031   0.21002   0.00000  Uiso   1.00
H360   H     0.20193   0.52071   0.77848   0.00000  Uiso   1.00
C361   C     0.31186   0.41829   0.42794   0.00000  Uiso   1.00
C362   C     0.32072   0.45208   0.43654   0.00000  Uiso   1.00
C363   C     0.30863   0.46765   0.46537   0.00000  Uiso   1.00
C364   C     0.28833   0.44865   0.48676   0.00000  Uiso   1.00
C365   C     0.27794   0.41487   0.47712   0.00000  Uiso   1.00
C366   C     0.28967   0.40007   0.44747   0.00000  Uiso   1.00
C367   C     0.31829   0.50419   0.47376   0.00000  Uiso   1.00
C368   C     0.25576   0.39420   0.49905   0.00000  Uiso   1.00
C369   C     0.25181   0.47562   0.52423   0.00000  Uiso   1.00
C370   C     0.24517   0.49028   0.55617   0.00000  Uiso   1.00
C371   C     0.26965   0.49270   0.58303   0.00000  Uiso   1.00
C372   C     0.29992   0.47987   0.57787   0.00000  Uiso   1.00
C373   C     0.30497   0.46431   0.54594   0.00000  Uiso   1.00
C374   C     0.21480   0.50255   0.56188   0.00000  Uiso   1.00
C375   C     0.20875   0.51684   0.59385   0.00000  Uiso   1.00
C376   C     0.23317   0.51986   0.62057   0.00000  Uiso   1.00
C377   C     0.26381   0.50796   0.61515   0.00000  Uiso   1.00
C378   C     0.28850   0.51103   0.64182   0.00000  Uiso   1.00
C379   C     0.31878   0.49852   0.63619   0.00000  Uiso   1.00
C380   C     0.32437   0.48296   0.60462   0.00000  Uiso   1.00
C381   C     0.22760   0.53426   0.65279   0.00000  Uiso   1.00
C382   C     0.28200   0.52628   0.67356   0.00000  Uiso   1.00
C383   C     0.24384   0.55003   0.71162   0.00000  Uiso   1.00
C384   C     0.25578   0.61043   0.69459   0.00000  Uiso   1.00
C385   C     0.22318   0.59565   0.74489   0.00000  Uiso   1.00
C386   C     0.23495   0.49032   0.73052   0.00000  Uiso   1.00
C387   C     0.21333   0.53862   0.76183   0.00000  Uiso   1.00
C388   C     0.23134   0.52720   0.73513   0.00000  Uiso   1.00
C389   C     0.24124   0.58474   0.71767   0.00000  Uiso   1.00
C390   C     0.20767   0.57237   0.76576   0.00000  Uiso   1.00
H391   H     0.26129   0.48598   0.73210   0.00000  Uiso   1.00
N392   N     0.28123   0.46281   0.51979   0.00000  Uiso   1.00
N393   N     0.25186   0.53730   0.67844   0.00000  Uiso   1.00
H394   H     0.22375   0.48060   0.70523   0.00000  Uiso   1.00
H395   H     0.33816   0.46587   0.42140   0.00000  Uiso   1.00
H396   H     0.28308   0.37389   0.44069   0.00000  Uiso   1.00
H397   H     0.33324   0.51562   0.45373   0.00000  Uiso   1.00
H398   H     0.29594   0.51774   0.47550   0.00000  Uiso   1.00
H399   H     0.33286   0.50747   0.49852   0.00000  Uiso   1.00
H400   H     0.23269   0.40621   0.50214   0.00000  Uiso   1.00
H401   H     0.24917   0.36868   0.48731   0.00000  Uiso   1.00
H402   H     0.26805   0.39186   0.52469   0.00000  Uiso   1.00
O403   O     0.33410   0.45096   0.54075   0.00000  Uiso   1.00
O404   O     0.22887   0.47452   0.49732   0.00000  Uiso   1.00
H405   H     0.19549   0.50089   0.54181   0.00000  Uiso   1.00
H406   H     0.34795   0.47347   0.60123   0.00000  Uiso   1.00
H407   H     0.18490   0.52559   0.59753   0.00000  Uiso   1.00
H408   H     0.27418   0.62784   0.70965   0.00000  Uiso   1.00
H409   H     0.26816   0.59903   0.67303   0.00000  Uiso   1.00
H410   H     0.21954   0.62198   0.74840   0.00000  Uiso   1.00
H411   H     0.33817   0.50048   0.65620   0.00000  Uiso   1.00
H412   H     0.22278   0.47596   0.75072   0.00000  Uiso   1.00
O413   O     0.30567   0.52962   0.69986   0.00000  Uiso   1.00
O414   O     0.19735   0.54468   0.65890   0.00000  Uiso   1.00
H415   H     0.23623   0.62496   0.68374   0.00000  Uiso   1.00
H416   H     0.28699   0.39267   0.22961   0.00000  Uiso   1.00
C417   C     0.17632   0.59981   0.93175   0.00000  Uiso   1.00
C418   C     0.16054   0.60568   0.96205   0.00000  Uiso   1.00
C419   C     0.17275   0.59478   0.99338   0.00000  Uiso   1.00
C420   C     0.19954   0.57468   0.99401   0.00000  Uiso   1.00
C421   C     0.21531   0.56825   0.96331   0.00000  Uiso   1.00
C422   C     0.20402   0.58168   0.93281   0.00000  Uiso   1.00
C423   C     0.15640   0.60400   0.02570   0.00000  Uiso   1.00
C424   C     0.24250   0.54516   0.96200   0.00000  Uiso   1.00
C425   C     0.18767   0.53347   0.03640   0.00000  Uiso   1.00
C426   C     0.19475   0.51866   0.06752   0.00000  Uiso   1.00
C427   C     0.22481   0.52812   0.08565   0.00000  Uiso   1.00
C428   C     0.24714   0.55241   0.07265   0.00000  Uiso   1.00
C429   C     0.23803   0.56814   0.04256   0.00000  Uiso   1.00
C430   C     0.17242   0.49476   0.08095   0.00000  Uiso   1.00
C431   C     0.17974   0.48077   0.11222   0.00000  Uiso   1.00
C432   C     0.20981   0.48975   0.13037   0.00000  Uiso   1.00
C433   C     0.23264   0.51324   0.11680   0.00000  Uiso   1.00
C434   C     0.26321   0.52173   0.13427   0.00000  Uiso   1.00
C435   C     0.28581   0.54514   0.12048   0.00000  Uiso   1.00
C436   C     0.27776   0.56046   0.09013   0.00000  Uiso   1.00
C437   C     0.21805   0.47561   0.16155   0.00000  Uiso   1.00
C438   C     0.27070   0.50623   0.16484   0.00000  Uiso   1.00
C439   C     0.25756   0.46623   0.20786   0.00000  Uiso   1.00
C440   C     0.25145   0.51827   0.24643   0.00000  Uiso   1.00
C441   C     0.27457   0.46750   0.26859   0.00000  Uiso   1.00
C442   C     0.26485   0.41477   0.16949   0.00000  Uiso   1.00
C443   C     0.27897   0.41758   0.23283   0.00000  Uiso   1.00
C444   C     0.26656   0.43308   0.20416   0.00000  Uiso   1.00
C445   C     0.26097   0.48318   0.24060   0.00000  Uiso   1.00
C446   C     0.28358   0.43481   0.26489   0.00000  Uiso   1.00
H447   H     0.27848   0.43003   0.15102   0.00000  Uiso   1.00
N448   N     0.20872   0.55851   0.02500   0.00000  Uiso   1.00
N449   N     0.24818   0.48345   0.17781   0.00000  Uiso   1.00
H450   H     0.23902   0.40950   0.15968   0.00000  Uiso   1.00
H451   H     0.13788   0.61771   0.96124   0.00000  Uiso   1.00
H452   H     0.21576   0.57620   0.90930   0.00000  Uiso   1.00
H453   H     0.13958   0.62389   0.02156   0.00000  Uiso   1.00
H454   H     0.14185   0.58197   0.03495   0.00000  Uiso   1.00
H455   H     0.17521   0.61376   0.04587   0.00000  Uiso   1.00
H456   H     0.23416   0.52035   0.97148   0.00000  Uiso   1.00
H457   H     0.25017   0.54084   0.93545   0.00000  Uiso   1.00
H458   H     0.26450   0.55591   0.97761   0.00000  Uiso   1.00
O459   O     0.25841   0.59370   0.03113   0.00000  Uiso   1.00
O460   O     0.15940   0.52281   0.01736   0.00000  Uiso   1.00
H461   H     0.14906   0.48707   0.06757   0.00000  Uiso   1.00
H462   H     0.29575   0.57838   0.08029   0.00000  Uiso   1.00
H463   H     0.16184   0.46265   0.12192   0.00000  Uiso   1.00
H464   H     0.27377   0.53566   0.25206   0.00000  Uiso   1.00
H465   H     0.23746   0.52685   0.22401   0.00000  Uiso   1.00
H466   H     0.27862   0.48108   0.29323   0.00000  Uiso   1.00
H467   H     0.30972   0.55178   0.13312   0.00000  Uiso   1.00
H468   H     0.27575   0.39044   0.17066   0.00000  Uiso   1.00
O469   O     0.30080   0.51344   0.18160   0.00000  Uiso   1.00
O470   O     0.19582   0.45324   0.17553   0.00000  Uiso   1.00
H471   H     0.23581   0.51945   0.26869   0.00000  Uiso   1.00
H472   H     0.95058   0.14724   0.52712   0.00000  Uiso   1.00
C473   C     0.29410   0.30690   0.43903   0.00000  Uiso   1.00
C474   C     0.28683   0.30811   0.47369   0.00000  Uiso   1.00
C475   C     0.25591   0.29589   0.48393   0.00000  Uiso   1.00
C476   C     0.23182   0.28154   0.45916   0.00000  Uiso   1.00
C477   C     0.23938   0.27960   0.42429   0.00000  Uiso   1.00
C478   C     0.27034   0.29235   0.41460   0.00000  Uiso   1.00
C479   C     0.24848   0.29932   0.52112   0.00000  Uiso   1.00
C480   C     0.21459   0.26418   0.39726   0.00000  Uiso   1.00
C481   C     0.17426   0.28896   0.46702   0.00000  Uiso   1.00
C482   C     0.14340   0.27811   0.47881   0.00000  Uiso   1.00
C483   C     0.13928   0.24692   0.49393   0.00000  Uiso   1.00
C484   C     0.16565   0.22674   0.49615   0.00000  Uiso   1.00
C485   C     0.19575   0.23817   0.48307   0.00000  Uiso   1.00
C486   C     0.11675   0.29783   0.47634   0.00000  Uiso   1.00
C487   C     0.08651   0.28676   0.48874   0.00000  Uiso   1.00
C488   C     0.08224   0.25584   0.50428   0.00000  Uiso   1.00
C489   C     0.10882   0.23600   0.50710   0.00000  Uiso   1.00
C490   C     0.10511   0.20538   0.52335   0.00000  Uiso   1.00
C491   C     0.13171   0.18558   0.52567   0.00000  Uiso   1.00
C492   C     0.16147   0.19595   0.51188   0.00000  Uiso   1.00
C493   C     0.05206   0.24423   0.51716   0.00000  Uiso   1.00
C494   C     0.07483   0.19534   0.53692   0.00000  Uiso   1.00
C495   C     0.01759   0.20307   0.54640   0.00000  Uiso   1.00
C496   C     0.02903   0.24263   0.59950   0.00000  Uiso   1.00
C497   C     0.97651   0.20670   0.58921   0.00000  Uiso   1.00
C498   C     0.00655   0.16197   0.49503   0.00000  Uiso   1.00
C499   C     0.96642   0.16680   0.54105   0.00000  Uiso   1.00
C500   C     0.99676   0.17759   0.52821   0.00000  Uiso   1.00
C501   C     0.00739   0.21719   0.57751   0.00000  Uiso   1.00
C502   C     0.95595   0.18152   0.57125   0.00000  Uiso   1.00
H503   H     0.02850   0.14817   0.49973   0.00000  Uiso   1.00
N504   N     0.19981   0.26913   0.46956   0.00000  Uiso   1.00
N505   N     0.04884   0.21445   0.53322   0.00000  Uiso   1.00
H506   H     0.01210   0.18171   0.47666   0.00000  Uiso   1.00
H507   H     0.30504   0.31940   0.49276   0.00000  Uiso   1.00
H508   H     0.27591   0.29115   0.38783   0.00000  Uiso   1.00
H509   H     0.27006   0.31072   0.53712   0.00000  Uiso   1.00
H510   H     0.22818   0.31562   0.52403   0.00000  Uiso   1.00
H511   H     0.24130   0.27438   0.53092   0.00000  Uiso   1.00
H512   H     0.19292   0.27886   0.39614   0.00000  Uiso   1.00
H513   H     0.22476   0.26380   0.37149   0.00000  Uiso   1.00
H514   H     0.20693   0.23802   0.40334   0.00000  Uiso   1.00
O515   O     0.22139   0.21839   0.48444   0.00000  Uiso   1.00
O516   O     0.17889   0.31983   0.45338   0.00000  Uiso   1.00
H517   H     0.11915   0.32192   0.46485   0.00000  Uiso   1.00
H518   H     0.18131   0.17992   0.51401   0.00000  Uiso   1.00
H519   H     0.06659   0.30268   0.48639   0.00000  Uiso   1.00
H520   H     0.03515   0.23174   0.62434   0.00000  Uiso   1.00
H521   H     0.05233   0.25026   0.58780   0.00000  Uiso   1.00
H522   H     0.96880   0.21768   0.61293   0.00000  Uiso   1.00
H523   H     0.12961   0.16195   0.53807   0.00000  Uiso   1.00
H524   H     0.98672   0.14399   0.48305   0.00000  Uiso   1.00
O525   O     0.07141   0.16624   0.55407   0.00000  Uiso   1.00
O526   O     0.02576   0.26297   0.51378   0.00000  Uiso   1.00
H527   H     0.01598   0.26532   0.60428   0.00000  Uiso   1.00
H528   H     0.03967   0.67937   0.83893   0.00000  Uiso   1.00
C529   C     0.96233   0.01206   0.69674   0.00000  Uiso   1.00
C530   C     0.98550  -0.00244   0.67719   0.00000  Uiso   1.00
C531   C     1.00096   0.96985   0.68860   0.00000  Uiso   1.00
C532   C     0.99259   0.95584   0.71991   0.00000  Uiso   1.00
C533   C     0.97068   0.97177   0.74063   0.00000  Uiso   1.00
C534   C     0.95601   0.99986   0.72896   0.00000  Uiso   1.00
C535   C     0.02547   0.95476   0.66673   0.00000  Uiso   1.00
C536   C     0.96140   0.95798   0.77424   0.00000  Uiso   1.00
C537   C     0.02849   0.92171   0.75275   0.00000  Uiso   1.00
C538   C     0.03878   0.89033   0.76144   0.00000  Uiso   1.00
C539   C     0.02323   0.86103   0.74460   0.00000  Uiso   1.00
C540   C     0.99734   0.86340   0.72007   0.00000  Uiso   1.00
C541   C     0.98757   0.89519   0.71262   0.00000  Uiso   1.00
C542   C     0.06416   0.88751   0.78646   0.00000  Uiso   1.00
C543   C     0.07414   0.85611   0.79433   0.00000  Uiso   1.00
C544   C     0.05915   0.82677   0.77716   0.00000  Uiso   1.00
C545   C     0.03359   0.82925   0.75228   0.00000  Uiso   1.00
C546   C     0.01821   0.80002   0.73513   0.00000  Uiso   1.00
C547   C     0.99216   0.80271   0.71098   0.00000  Uiso   1.00
C548   C     0.98179   0.83401   0.70359   0.00000  Uiso   1.00
C549   C     0.06875   0.79487   0.78462   0.00000  Uiso   1.00
C550   C     0.02904   0.76872   0.74298   0.00000  Uiso   1.00
C551   C     0.06173   0.73412   0.77847   0.00000  Uiso   1.00
C552   C     0.11208   0.73608   0.74256   0.00000  Uiso   1.00
C553   C     0.10240   0.69362   0.78700   0.00000  Uiso   1.00
C554   C     0.01107   0.73079   0.81330   0.00000  Uiso   1.00
C555   C     0.05326   0.69008   0.81846   0.00000  Uiso   1.00
C556   C     0.04216   0.71751   0.80219   0.00000  Uiso   1.00
C557   C     0.09119   0.72074   0.76928   0.00000  Uiso   1.00
C558   C     0.08420   0.67972   0.81310   0.00000  Uiso   1.00
H559   H    -0.00645   0.73174   0.79094   0.00000  Uiso   1.00
N560   N     1.00331   0.92364   0.72865   0.00000  Uiso   1.00
N561   N     0.05362   0.76660   0.76761   0.00000  Uiso   1.00
H562   H     0.01677   0.75608   0.82580   0.00000  Uiso   1.00
H563   H     0.99060   0.00713   0.65235   0.00000  Uiso   1.00
H564   H     0.93791   0.01087   0.74402   0.00000  Uiso   1.00
H565   H     0.03061   0.96988   0.64418   0.00000  Uiso   1.00
H566   H     0.04884   0.95364   0.68203   0.00000  Uiso   1.00
H567   H     0.01598   0.92916   0.65722   0.00000  Uiso   1.00
H568   H     0.98345   0.95855   0.79194   0.00000  Uiso   1.00
H569   H     0.94339   0.97294   0.78672   0.00000  Uiso   1.00
H570   H     0.95029   0.93186   0.76998   0.00000  Uiso   1.00
O571   O     0.96209   0.89768   0.68900   0.00000  Uiso   1.00
O572   O     0.04391   0.95048   0.76839   0.00000  Uiso   1.00
H573   H     0.07636   0.90953   0.80011   0.00000  Uiso   1.00
H574   H     0.96163   0.83506   0.68481   0.00000  Uiso   1.00
H575   H     0.09366   0.85491   0.81386   0.00000  Uiso   1.00
H576   H     0.11371   0.71734   0.72112   0.00000  Uiso   1.00
H577   H     0.10211   0.75850   0.73177   0.00000  Uiso   1.00
H578   H     0.12661   0.68586   0.78257   0.00000  Uiso   1.00
H579   H     0.97960   0.78060   0.69783   0.00000  Uiso   1.00
H580   H    -0.00104   0.71459   0.83207   0.00000  Uiso   1.00
O581   O     0.01438   0.74010   0.72629   0.00000  Uiso   1.00
O582   O     0.09288   0.79206   0.80966   0.00000  Uiso   1.00
H583   H     0.13713   0.74353   0.75390   0.00000  Uiso   1.00
H584   H     0.98433   0.15880   0.67072   0.00000  Uiso   1.00
C585   C     0.06616   0.53173   0.79466   0.00000  Uiso   1.00
C586   C     0.03472   0.52349   0.80576   0.00000  Uiso   1.00
C587   C     0.01875   0.49141   0.79760   0.00000  Uiso   1.00
C588   C     0.03550   0.46716   0.77992   0.00000  Uiso   1.00
C589   C     0.06780   0.47529   0.77051   0.00000  Uiso   1.00
C590   C     0.08240   0.50762   0.77730   0.00000  Uiso   1.00
C591   C     0.98431   0.48312   0.80784   0.00000  Uiso   1.00
C592   C     0.08719   0.44932   0.75402   0.00000  Uiso   1.00
C593   C     0.01007   0.42707   0.73699   0.00000  Uiso   1.00
C594   C     0.00317   0.39380   0.72459   0.00000  Uiso   1.00
C595   C     0.00477   0.36792   0.74763   0.00000  Uiso   1.00
C596   C     0.01346   0.37568   0.78256   0.00000  Uiso   1.00
C597   C     0.02134   0.40939   0.79357   0.00000  Uiso   1.00
C598   C     0.99595   0.38580   0.68956   0.00000  Uiso   1.00
C599   C     0.98989   0.35249   0.67759   0.00000  Uiso   1.00
C600   C     0.99032   0.32652   0.70047   0.00000  Uiso   1.00
C601   C     0.99796   0.33422   0.73559   0.00000  Uiso   1.00
C602   C     0.99864   0.30829   0.75868   0.00000  Uiso   1.00
C603   C     0.00769   0.31621   0.79343   0.00000  Uiso   1.00
C604   C     0.01523   0.34953   0.80520   0.00000  Uiso   1.00
C605   C     0.98234   0.29302   0.68925   0.00000  Uiso   1.00
C606   C     0.98939   0.27517   0.74642   0.00000  Uiso   1.00
C607   C     0.96552   0.23578   0.70107   0.00000  Uiso   1.00
C608   C     0.90908   0.25709   0.70757   0.00000  Uiso   1.00
C609   C     0.91659   0.19988   0.68355   0.00000  Uiso   1.00
C610   C     0.02141   0.21470   0.69676   0.00000  Uiso   1.00
C611   C     0.96960   0.17879   0.67797   0.00000  Uiso   1.00
C612   C     0.98480   0.20965   0.69175   0.00000  Uiso   1.00
C613   C     0.93113   0.23059   0.69722   0.00000  Uiso   1.00
C614   C     0.93543   0.17379   0.67353   0.00000  Uiso   1.00
H615   H     0.02844   0.21764   0.72459   0.00000  Uiso   1.00
N616   N     0.02016   0.43418   0.77061   0.00000  Uiso   1.00
N617   N     0.98062   0.26837   0.71239   0.00000  Uiso   1.00
H618   H     0.03062   0.23765   0.68423   0.00000  Uiso   1.00
H619   H     0.02284   0.54186   0.82064   0.00000  Uiso   1.00
H620   H     0.10746   0.51369   0.77070   0.00000  Uiso   1.00
H621   H     0.97560   0.50378   0.82378   0.00000  Uiso   1.00
H622   H     0.96770   0.47849   0.78450   0.00000  Uiso   1.00
H623   H     0.98301   0.46036   0.82299   0.00000  Uiso   1.00
H624   H     0.07781   0.44365   0.72711   0.00000  Uiso   1.00
H625   H     0.11364   0.45795   0.75406   0.00000  Uiso   1.00
H626   H     0.08513   0.42599   0.76828   0.00000  Uiso   1.00
O627   O     0.03192   0.41731   0.82703   0.00000  Uiso   1.00
O628   O     0.00880   0.45254   0.71477   0.00000  Uiso   1.00
H629   H     0.99534   0.40521   0.67121   0.00000  Uiso   1.00
H630   H     0.02244   0.35469   0.83207   0.00000  Uiso   1.00
H631   H     0.98454   0.34717   0.65041   0.00000  Uiso   1.00
H632   H     0.89386   0.24803   0.72849   0.00000  Uiso   1.00
H633   H     0.92260   0.28110   0.71694   0.00000  Uiso   1.00
H634   H     0.89010   0.19644   0.68098   0.00000  Uiso   1.00
H635   H     0.00907   0.29670   0.81160   0.00000  Uiso   1.00
H636   H     0.03322   0.19314   0.68574   0.00000  Uiso   1.00
O637   O     0.98758   0.24985   0.76890   0.00000  Uiso   1.00
O638   O     0.97413   0.28519   0.65520   0.00000  Uiso   1.00
H639   H     0.89270   0.26227   0.68531   0.00000  Uiso   1.00
H640   H     0.02299   0.65155   0.96136   0.00000  Uiso   1.00
C641   C     0.72288   0.82625   0.07154   0.00000  Uiso   1.00
C642   C     0.74760   0.84280   0.05368   0.00000  Uiso   1.00
C643   C     0.77379   0.82597   0.04221   0.00000  Uiso   1.00
C644   C     0.77457   0.79134   0.04712   0.00000  Uiso   1.00
C645   C     0.74889   0.77421   0.06399   0.00000  Uiso   1.00
C646   C     0.72358   0.79204   0.07669   0.00000  Uiso   1.00
C647   C     0.80158   0.84551   0.02627   0.00000  Uiso   1.00
C648   C     0.74819   0.73714   0.06840   0.00000  Uiso   1.00
C649   C     0.82721   0.77087   0.06157   0.00000  Uiso   1.00
C650   C     0.85784   0.76166   0.05195   0.00000  Uiso   1.00
C651   C     0.86319   0.75658   0.01691   0.00000  Uiso   1.00
C652   C     0.83740   0.75891   0.99222   0.00000  Uiso   1.00
C653   C     0.80682   0.76728   1.00316   0.00000  Uiso   1.00
C654   C     0.88358   0.75872   0.07643   0.00000  Uiso   1.00
C655   C     0.91446   0.75172   0.06625   0.00000  Uiso   1.00
C656   C     0.92029   0.74732   0.03136   0.00000  Uiso   1.00
C657   C     0.89454   0.74959   1.00658   0.00000  Uiso   1.00
C658   C     0.90017   0.74518   0.97153   0.00000  Uiso   1.00
C659   C     0.87428   0.74758   0.94705   0.00000  Uiso   1.00
C660   C     0.84319   0.75411   0.95728   0.00000  Uiso   1.00
C661   C     0.95118   0.74021   0.02062   0.00000  Uiso   1.00
C662   C     0.93154   0.73806   0.96196   0.00000  Uiso   1.00
C663   C     0.98687   0.72388   0.97665   0.00000  Uiso   1.00
C664   C     0.01196   0.78424   0.97459   0.00000  Uiso   1.00
C665   C     0.04398   0.73542   0.96381   0.00000  Uiso   1.00
C666   C     0.96175   0.66408   0.97748   0.00000  Uiso   1.00
C667   C     0.02070   0.67814   0.96491   0.00000  Uiso   1.00
C668   C     0.99039   0.68922   0.97304   0.00000  Uiso   1.00
C669   C     0.01397   0.74705   0.97190   0.00000  Uiso   1.00
C670   C     0.04771   0.70112   0.96047   0.00000  Uiso   1.00
H671   H     0.94200   0.66727   0.95774   0.00000  Uiso   1.00
N672   N     0.80278   0.77471   0.03719   0.00000  Uiso   1.00
N673   N     0.95607   0.73506   0.98649   0.00000  Uiso   1.00
H674   H     0.95229   0.66785   1.00332   0.00000  Uiso   1.00
H675   H     0.74709   0.86936   0.04988   0.00000  Uiso   1.00
H676   H     0.70422   0.77928   0.09020   0.00000  Uiso   1.00
H677   H     0.79669   0.87203   0.02332   0.00000  Uiso   1.00
H678   H     0.82432   0.84502   0.04278   0.00000  Uiso   1.00
H679   H     0.80547   0.83462   1.00043   0.00000  Uiso   1.00
H680   H     0.76818   0.73174   0.08691   0.00000  Uiso   1.00
H681   H     0.72459   0.72708   0.07816   0.00000  Uiso   1.00
H682   H     0.75117   0.72391   0.04338   0.00000  Uiso   1.00
O683   O     0.78146   0.76984   0.97943   0.00000  Uiso   1.00
O684   O     0.82245   0.77794   0.09551   0.00000  Uiso   1.00
H685   H     0.88005   0.76211   0.10355   0.00000  Uiso   1.00
H686   H     0.82388   0.75589   0.93768   0.00000  Uiso   1.00
H687   H     0.93378   0.74986   0.08580   0.00000  Uiso   1.00
H688   H     0.01644   0.79465   0.94924   0.00000  Uiso   1.00
H689   H     0.98789   0.79128   0.98260   0.00000  Uiso   1.00
H690   H     0.06437   0.75340   0.95940   0.00000  Uiso   1.00
H691   H     0.87797   0.74446   0.91991   0.00000  Uiso   1.00
H692   H     0.96864   0.63798   0.97476   0.00000  Uiso   1.00
O693   O     0.93741   0.73340   0.92794   0.00000  Uiso   1.00
O694   O     0.97643   0.73775   0.04453   0.00000  Uiso   1.00
H695   H     0.03115   0.79566   0.99361   0.00000  Uiso   1.00
H696   H     0.43775   0.46929   0.35712   0.00000  Uiso   1.00
C697   C     0.53330   0.80574   0.19635   0.00000  Uiso   1.00
C698   C     0.51821   0.78226   0.17175   0.00000  Uiso   1.00
C699   C     0.51035   0.74911   0.18067   0.00000  Uiso   1.00
C700   C     0.51684   0.74010   0.21474   0.00000  Uiso   1.00
C701   C     0.53194   0.76396   0.23933   0.00000  Uiso   1.00
C702   C     0.54022   0.79643   0.22975   0.00000  Uiso   1.00
C703   C     0.49562   0.72342   0.15389   0.00000  Uiso   1.00
C704   C     0.53942   0.75508   0.27571   0.00000  Uiso   1.00
C705   C     0.53129   0.68390   0.22444   0.00000  Uiso   1.00
C706   C     0.52373   0.65147   0.23543   0.00000  Uiso   1.00
C707   C     0.49201   0.64263   0.24598   0.00000  Uiso   1.00
C708   C     0.46848   0.66621   0.24544   0.00000  Uiso   1.00
C709   C     0.47729   0.69842   0.23466   0.00000  Uiso   1.00
C710   C     0.54702   0.62779   0.23622   0.00000  Uiso   1.00
C711   C     0.53893   0.59572   0.24746   0.00000  Uiso   1.00
C712   C     0.50729   0.58655   0.25783   0.00000  Uiso   1.00
C713   C     0.48374   0.61010   0.25698   0.00000  Uiso   1.00
C714   C     0.45184   0.60113   0.26691   0.00000  Uiso   1.00
C715   C     0.42857   0.62484   0.26623   0.00000  Uiso   1.00
C716   C     0.43684   0.65709   0.25571   0.00000  Uiso   1.00
C717   C     0.49835   0.55424   0.26865   0.00000  Uiso   1.00
C718   C     0.44391   0.56844   0.27693   0.00000  Uiso   1.00
C719   C     0.45729   0.51202   0.28640   0.00000  Uiso   1.00
C720   C     0.44384   0.49497   0.22322   0.00000  Uiso   1.00
C721   C     0.42755   0.45822   0.27040   0.00000  Uiso   1.00
C722   C     0.47087   0.52940   0.34881   0.00000  Uiso   1.00
C723   C     0.44021   0.47403   0.33028   0.00000  Uiso   1.00
C724   C     0.45659   0.50427   0.32123   0.00000  Uiso   1.00
C725   C     0.44381   0.48816   0.26079   0.00000  Uiso   1.00
C726   C     0.42415   0.45169   0.30504   0.00000  Uiso   1.00
H727   H     0.45680   0.55183   0.34877   0.00000  Uiso   1.00
N728   N     0.50821   0.70659   0.22452   0.00000  Uiso   1.00
N729   N     0.46699   0.54572   0.27745   0.00000  Uiso   1.00
H730   H     0.49682   0.53700   0.34406   0.00000  Uiso   1.00
H731   H     0.51370   0.78939   0.14562   0.00000  Uiso   1.00
H732   H     0.55229   0.81474   0.24846   0.00000  Uiso   1.00
H733   H     0.49991   0.73168   0.12772   0.00000  Uiso   1.00
H734   H     0.50712   0.69955   0.15638   0.00000  Uiso   1.00
H735   H     0.46891   0.71891   0.15694   0.00000  Uiso   1.00
H736   H     0.55477   0.73366   0.27615   0.00000  Uiso   1.00
H737   H     0.55308   0.77633   0.29093   0.00000  Uiso   1.00
H738   H     0.51624   0.74845   0.28817   0.00000  Uiso   1.00
O739   O     0.45489   0.72194   0.23451   0.00000  Uiso   1.00
O740   O     0.56198   0.69300   0.21379   0.00000  Uiso   1.00
H741   H     0.57157   0.63397   0.22821   0.00000  Uiso   1.00
H742   H     0.41836   0.67478   0.25551   0.00000  Uiso   1.00
H743   H     0.55747   0.57810   0.24779   0.00000  Uiso   1.00
H744   H     0.41833   0.49677   0.21304   0.00000  Uiso   1.00
H745   H     0.45853   0.51850   0.21809   0.00000  Uiso   1.00
H746   H     0.41527   0.44120   0.25063   0.00000  Uiso   1.00
H747   H     0.40388   0.61859   0.27377   0.00000  Uiso   1.00
H748   H     0.47006   0.51896   0.37461   0.00000  Uiso   1.00
O749   O     0.41268   0.55907   0.28591   0.00000  Uiso   1.00
O750   O     0.52092   0.53095   0.26973   0.00000  Uiso   1.00
H751   H     0.45428   0.47417   0.20907   0.00000  Uiso   1.00
loop_
_geom_bond_atom_site_label_1
_geom_bond_atom_site_label_2
_geom_bond_distance
_geom_bond_site_symmetry_2
_ccdc_geom_bond_type
Yb0    O3      2.082   .     S
Yb0    O4      2.099   .     S
Yb0    O5      2.169   .     S
Yb0    O7      2.072   .     S
Yb0    O8      2.108   .     S
Yb0    O12     2.174   .     S
Yb1    O6      2.137   .     S
Yb1    O9      2.079   .     S
Yb1    O10     2.105   .     S
Yb1    O13     2.132   .     S
Yb1    O14     2.090   .     S
Yb1    O16     2.095   .     S
C2     O14     1.295   .     A
C2     O16     1.292   .     A
C2     C670    1.479   .     S
O3     C11     1.286   .     A
O4     C11     1.295   .     A
O5     C15     1.271   .     A
O6     C15     1.273   .     A
O7     C17     1.291   .     A
O8     C17     1.293   .     A
O9     C18     1.283   .     A
O10    C18     1.294   .     A
C11    C585    1.457   .     S
O12    C19     1.267   .     A
O13    C19     1.260   .     A
C15    C558    1.464   .     S
C17    C390    1.470   .     S
C18    C110    1.454   .     S
C19    C417    1.476   .     S
Yb20   O23     2.070   .     S
Yb20   O24     2.108   .     S
Yb20   O25     2.199   .     S
Yb20   O27     2.099   .     S
Yb20   O28     2.130   .     S
Yb20   O32     2.188   .     S
Yb21   O26     2.157   .     S
Yb21   O29     2.057   .     S
Yb21   O30     2.112   .     S
Yb21   O33     2.128   .     S
Yb21   O34     2.090   .     S
Yb21   O36     2.096   .     S
C22    O34     1.290   .     A
C22    O36     1.295   .     A
C22    C166    1.472   .     S
O23    C31     1.287   .     A
O24    C31     1.294   .     A
O25    C35     1.279   .     A
O26    C35     1.279   .     A
O27    C37     1.284   .     A
O28    C37     1.294   .     A
O29    C38     1.285   .     A
O30    C38     1.294   .     A
C31    C278    1.460   .     S
O32    C39     1.271   .     A
O33    C39     1.260   .     A
C35    C334    1.465   .     S
C37    C641    1.474   .     S
C38    C697    1.457   .     S
C39    C81     1.475   .     S
Yb40   O43     2.098   .     S
Yb40   O44     2.121   .     S
Yb40   O45     2.189   .     S
Yb40   O47     2.108   .     S
Yb40   O48     2.098   .     S
Yb40   O52     2.189   .     S
Yb41   O46     2.136   .     S
Yb41   O49     2.112   .     S
Yb41   O50     2.120   .     S
Yb41   O53     2.121   .     S
Yb41   O54     2.095   .     S
Yb41   O56     2.094   .     S
C42    O54     1.292   .     A
C42    O56     1.292   .     A
C42    C193    1.473   .     S
O43    C51     1.285   .     A
O44    C51     1.291   .     A
O45    C55     1.278   .     A
O46    C55     1.268   .     A
O47    C57     1.292   .     A
O48    C57     1.289   .     A
O49    C58     1.290   .     A
O50    C58     1.294   .     A
C51    C249    1.477   .     S
O52    C59     1.274   .     A
O53    C59     1.258   .     A
C55    C305    1.474   .     S
C57    C529    1.478   .     S
C58    C502    1.482   .     S
C59    C614    1.485   .     S
Yb60   O63     2.116   .     S
Yb60   O64     2.096   .     S
Yb60   O65     2.136   .     S
Yb60   O67     2.097   .     S
Yb60   O68     2.088   .     S
Yb60   O72     2.171   .     S
Yb61   O66     2.120   .     S
Yb61   O69     2.112   .     S
Yb61   O70     2.106   .     S
Yb61   O73     2.152   .     S
Yb61   O74     2.097   .     S
Yb61   O76     2.099   .     S
C62    O74     1.288   .     A
C62    O76     1.293   .     A
C62    C222    1.470   .     S
O63    C71     1.291   .     A
O64    C71     1.288   .     A
O65    C75     1.261   .     A
O66    C75     1.259   .     A
O67    C77     1.291   .     A
O68    C77     1.289   .     A
O69    C78     1.292   .     A
O70    C78     1.291   .     A
C71    C726    1.479   .     S
O72    C79     1.278   .     A
O73    C79     1.272   .     A
C75    C137    1.450   .     S
C77    C446    1.469   .     S
C78    C473    1.483   .     S
C79    C361    1.464   .     S
H80    C107    1.083   .     S
C81    C82     1.399   .     A
C81    C86     1.402   .     A
C82    C83     1.404   .     A
C82    H115    1.084   .     S
C83    C84     1.417   .     A
C83    C87     1.506   .     S
C84    C85     1.416   .     A
C84    N112    1.449   .     S
C85    C86     1.405   .     A
C85    C88     1.508   .     S
C86    H116    1.084   .     S
C87    H118    1.109   .     S
C87    H117    1.112   1_554 S
C87    H119    1.110   1_554 S
C88    H120    1.110   .     S
C88    H121    1.111   .     S
C88    H122    1.110   .     S
C89    C90     1.405   .     A
C89    N112    1.369   .     A
C89    O124    1.371   .     S
C90    C91     1.407   .     A
C90    C94     1.405   .     A
C91    C92     1.408   1_554 A
C91    C97     1.415   1_554 A
C92    C100    1.408   .     A
C92    C91     1.408   1_556 A
C92    C93     1.412   1_556 A
C93    N112    1.374   .     A
C93    C92     1.412   1_554 A
C93    O123    1.371   1_554 S
C94    C95     1.395   .     A
C94    H125    1.083   .     S
C95    C96     1.403   .     A
C95    H127    1.083   .     S
C96    C97     1.410   1_554 A
C96    C101    1.402   1_554 A
C97    C98     1.409   .     A
C97    C91     1.415   1_556 A
C97    C96     1.410   1_556 A
C98    C99     1.408   .     A
C98    C102    1.409   .     A
C99    C100    1.401   .     A
C99    H131    1.084   .     S
C100   H126    1.083   .     S
C101   N113    1.368   .     A
C101   C96     1.402   1_556 A
C101   O134    1.375   1_556 S
C102   N113    1.373   .     A
C102   O133    1.373   .     S
C103   C108    1.415   .     A
C103   C109    1.418   .     A
C103   N113    1.439   .     S
C104   C109    1.507   .     S
C104   H128    1.109   .     S
C104   H129    1.107   .     S
C104   H135    1.112   .     S
C105   C109    1.403   .     A
C105   C110    1.398   .     A
C105   H130    1.085   .     S
C106   C108    1.504   .     S
C106   H111    1.109   .     S
C106   H114    1.109   .     S
C106   H132    1.111   .     S
C107   C108    1.397   .     A
C107   C110    1.391   .     A
H117   C87     1.112   1_556 S
H119   C87     1.110   1_556 S
O123   C93     1.371   1_556 S
O134   C101    1.375   1_554 S
H136   C163    1.082   .     S
C137   C138    1.395   .     A
C137   C142    1.394   .     A
C138   C139    1.397   .     A
C138   H171    1.083   .     S
C139   C140    1.412   .     A
C139   C143    1.505   .     S
C140   C141    1.412   .     A
C140   N168    1.435   .     S
C141   C142    1.398   .     A
C141   C144    1.503   .     S
C142   H172    1.084   .     S
C143   H173    1.111   .     S
C143   H174    1.110   .     S
C143   H175    1.111   .     S
C144   H176    1.110   .     S
C144   H177    1.112   .     S
C144   H178    1.110   .     S
C145   C146    1.401   .     A
C145   N168    1.368   .     A
C145   O180    1.373   .     S
C146   C147    1.409   .     A
C146   C150    1.404   .     A
C147   C148    1.409   .     A
C147   C153    1.412   .     A
C148   C149    1.404   .     A
C148   C156    1.405   .     A
C149   N168    1.368   .     A
C149   O179    1.372   .     S
C150   C151    1.395   .     A
C150   H181    1.083   .     S
C151   C152    1.405   .     A
C151   H183    1.083   .     S
C152   C153    1.409   .     A
C152   C157    1.402   .     A
C153   C154    1.409   .     A
C154   C155    1.406   .     A
C154   C158    1.405   .     A
C155   C156    1.397   .     A
C155   H187    1.083   .     S
C156   H182    1.083   .     S
C157   N169    1.369   .     A
C157   O190    1.373   .     S
C158   N169    1.370   .     A
C158   O189    1.373   .     S
C159   C164    1.411   .     A
C159   C165    1.414   .     A
C159   N169    1.438   .     S
C160   C165    1.506   .     S
C160   H184    1.110   .     S
C160   H185    1.108   .     S
C160   H191    1.110   1_545 S
C161   C166    1.402   .     A
C161   H186    1.084   .     S
C161   C165    1.402   1_565 A
C162   C164    1.506   .     S
C162   H167    1.111   .     S
C162   H170    1.110   .     S
C162   H188    1.111   .     S
C163   C164    1.400   .     A
C163   C166    1.400   1_545 A
C165   C161    1.402   1_545 A
C166   C163    1.400   1_565 A
H191   C160    1.110   1_565 S
H192   C219    1.084   .     S
C193   C194    1.402   .     A
C193   C198    1.402   .     A
C194   C195    1.403   .     A
C194   H227    1.084   .     S
C195   C196    1.412   .     A
C195   C199    1.506   .     S
C196   C197    1.412   .     A
C196   N224    1.440   .     S
C197   C198    1.402   .     A
C197   C200    1.506   .     S
C198   H228    1.084   .     S
C199   H229    1.111   .     S
C199   H230    1.111   .     S
C199   H231    1.110   .     S
C200   H232    1.110   .     S
C200   H233    1.111   .     S
C200   H234    1.111   .     S
C201   C202    1.404   .     A
C201   N224    1.370   .     A
C201   O236    1.373   .     S
C202   C203    1.408   .     A
C202   C206    1.405   .     A
C203   C204    1.409   .     A
C203   C209    1.413   .     A
C204   C205    1.406   .     A
C204   C212    1.405   .     A
C205   N224    1.370   .     A
C205   O235    1.373   .     S
C206   C207    1.397   .     A
C206   H237    1.083   .     S
C207   C208    1.405   .     A
C207   H239    1.083   .     S
C208   C209    1.409   .     A
C208   C213    1.405   .     A
C209   C210    1.408   .     A
C210   C211    1.406   .     A
C210   C214    1.405   .     A
C211   C212    1.398   .     A
C211   H243    1.083   .     S
C212   H238    1.083   .     S
C213   N225    1.371   .     A
C213   O246    1.373   .     S
C214   N225    1.370   .     A
C214   O245    1.373   .     S
C215   C220    1.415   .     A
C215   C221    1.415   .     A
C215   N225    1.441   .     S
C216   C221    1.505   .     S
C216   H240    1.110   .     S
C216   H241    1.108   .     S
C216   H247    1.110   .     S
C217   C221    1.399   .     A
C217   C222    1.397   .     A
C217   H242    1.084   .     S
C218   C220    1.508   .     S
C218   H223    1.110   .     S
C218   H226    1.111   .     S
C218   H244    1.110   .     S
C219   C220    1.405   .     A
C219   C222    1.403   .     A
H248   C275    1.083   .     S
C249   C250    1.403   .     A
C249   C254    1.404   .     A
C250   C251    1.407   .     A
C250   H283    1.084   .     S
C251   C252    1.414   .     A
C251   C255    1.506   1_545 S
C252   C253    1.411   .     A
C252   N280    1.441   .     S
C253   C254    1.399   .     A
C253   C256    1.509   .     S
C254   H284    1.083   .     S
C255   H285    1.111   .     S
C255   H286    1.110   .     S
C255   H287    1.111   .     S
C255   C251    1.506   1_565 S
C256   H288    1.111   .     S
C256   H289    1.111   .     S
C256   H290    1.110   .     S
C257   N280    1.371   .     A
C257   C258    1.402   1_545 A
C257   O292    1.373   1_545 S
C258   C262    1.405   .     A
C258   C257    1.402   1_565 A
C258   C259    1.407   1_565 A
C259   C260    1.410   .     A
C259   C258    1.407   1_545 A
C259   C265    1.412   1_545 A
C260   C261    1.407   .     A
C260   C268    1.405   .     A
C261   N280    1.370   .     A
C261   O291    1.373   .     S
C262   C263    1.395   .     A
C262   H293    1.083   .     S
C263   C264    1.403   .     A
C263   H295    1.083   .     S
C264   C265    1.410   .     A
C264   C269    1.403   .     A
C265   C259    1.412   1_565 A
C265   C266    1.408   1_565 A
C266   C267    1.405   .     A
C266   C265    1.408   1_545 A
C266   C270    1.404   1_545 A
C267   C268    1.397   .     A
C267   H299    1.083   .     S
C268   H294    1.083   .     S
C269   N281    1.368   .     A
C269   O302    1.374   .     S
C270   N281    1.370   .     A
C270   O301    1.373   .     S
C270   C266    1.404   1_565 A
C271   N281    1.436   .     S
C271   C276    1.417   1_556 A
C271   C277    1.411   1_556 A
C272   H296    1.109   .     S
C272   H297    1.106   .     S
C272   H303    1.111   .     S
C272   C277    1.509   1_556 S
C273   C277    1.388   .     A
C273   C278    1.400   .     A
C273   H298    1.086   .     S
C274   H282    1.109   .     S
C274   H300    1.111   .     S
C274   C276    1.503   1_545 S
C274   H279    1.111   1_554 S
C275   C276    1.408   .     A
C275   C278    1.397   .     A
C276   C271    1.417   1_554 A
C276   C274    1.503   1_565 S
C277   C271    1.411   1_554 A
C277   C272    1.509   1_554 S
H279   C274    1.111   1_556 S
O292   C257    1.373   1_565 S
H304   C331    1.082   .     S
C305   C306    1.397   .     A
C305   C310    1.402   .     A
C306   C307    1.401   .     A
C306   H339    1.081   .     S
C307   C308    1.413   .     A
C307   C311    1.504   .     S
C308   C309    1.417   .     A
C308   N336    1.447   .     S
C309   C310    1.410   .     A
C309   C312    1.506   1_545 S
C310   H340    1.084   .     S
C311   H341    1.112   .     S
C311   H342    1.110   .     S
C311   H343    1.110   .     S
C312   H344    1.110   .     S
C312   H345    1.111   .     S
C312   H346    1.111   .     S
C312   C309    1.506   1_565 S
C313   C314    1.408   .     A
C313   N336    1.371   .     A
C313   O348    1.372   .     S
C314   C315    1.408   .     A
C314   C318    1.406   1_545 A
C315   C316    1.409   .     A
C315   C321    1.417   .     A
C316   C317    1.410   .     A
C316   C324    1.406   .     A
C317   N336    1.371   .     A
C317   O347    1.372   .     S
C318   C319    1.399   .     A
C318   H349    1.083   .     S
C318   C314    1.406   1_565 A
C319   C320    1.406   .     A
C319   H351    1.084   .     S
C320   C325    1.410   .     A
C320   C321    1.410   1_565 A
C321   C322    1.408   .     A
C321   C320    1.410   1_545 A
C322   C323    1.406   .     A
C322   C326    1.408   1_545 A
C323   C324    1.399   .     A
C323   H355    1.083   .     S
C324   H350    1.083   .     S
C325   N337    1.370   .     A
C325   O358    1.372   .     S
C326   N337    1.372   .     A
C326   O357    1.373   .     S
C326   C322    1.408   1_565 A
C327   C332    1.413   .     A
C327   C333    1.419   .     A
C327   N337    1.445   .     S
C328   H352    1.111   .     S
C328   H353    1.109   .     S
C328   H359    1.111   .     S
C328   C333    1.503   1_545 S
C329   C333    1.407   .     A
C329   C334    1.397   .     A
C329   H354    1.083   .     S
C330   C332    1.511   .     S
C330   H335    1.112   .     S
C330   H338    1.110   .     S
C330   H356    1.113   .     S
C331   C332    1.401   .     A
C331   C334    1.400   .     A
C333   C328    1.503   1_565 S
H360   C387    1.084   .     S
C361   C362    1.396   .     A
C361   C366    1.399   .     A
C362   C363    1.399   .     A
C362   H395    1.084   .     S
C363   C364    1.413   .     A
C363   C367    1.504   .     S
C364   C365    1.416   .     A
C364   N392    1.443   .     S
C365   C366    1.406   .     A
C365   C368    1.506   .     S
C366   H396    1.081   .     S
C367   H397    1.111   .     S
C367   H398    1.110   .     S
C367   H399    1.109   .     S
C368   H400    1.109   .     S
C368   H401    1.110   .     S
C368   H402    1.110   .     S
C369   C370    1.407   .     A
C369   N392    1.370   .     A
C369   O404    1.373   .     S
C370   C371    1.410   .     A
C370   C374    1.405   .     A
C371   C372    1.407   .     A
C371   C377    1.414   .     A
C372   C373    1.405   .     A
C372   C380    1.406   .     A
C373   N392    1.372   .     A
C373   O403    1.373   .     S
C374   C375    1.396   .     A
C374   H405    1.083   .     S
C375   C376    1.405   .     A
C375   H407    1.083   .     S
C376   C377    1.407   .     A
C376   C381    1.401   .     A
C377   C378    1.411   .     A
C378   C379    1.405   .     A
C378   C382    1.408   .     A
C379   C380    1.398   .     A
C379   H411    1.083   .     S
C380   H406    1.083   .     S
C381   N393    1.371   .     A
C381   O414    1.374   .     S
C382   N393    1.369   .     A
C382   O413    1.373   .     S
C383   C388    1.411   .     A
C383   C389    1.418   .     A
C383   N393    1.439   .     S
C384   C389    1.506   .     S
C384   H408    1.111   .     S
C384   H409    1.109   .     S
C384   H415    1.110   .     S
C385   C389    1.405   .     A
C385   C390    1.401   .     A
C385   H410    1.084   .     S
C386   C388    1.505   .     S
C386   H391    1.110   .     S
C386   H394    1.109   .     S
C386   H412    1.112   .     S
C387   C388    1.395   .     A
C387   C390    1.398   .     A
H416   C443    1.084   .     S
C417   C418    1.401   .     A
C417   C422    1.402   .     A
C418   C419    1.402   .     A
C418   H451    1.085   .     S
C419   C420    1.419   .     A
C419   C423    1.509   1_556 S
C420   C421    1.418   .     A
C420   N448    1.448   1_556 S
C421   C422    1.404   .     A
C421   C424    1.513   .     S
C422   H452    1.083   .     S
C423   H453    1.112   .     S
C423   H454    1.109   .     S
C423   H455    1.109   .     S
C423   C419    1.509   1_554 S
C424   H456    1.111   .     S
C424   H457    1.112   .     S
C424   H458    1.109   .     S
C425   C426    1.406   .     A
C425   N448    1.374   .     A
C425   O460    1.373   .     S
C426   C427    1.406   .     A
C426   C430    1.408   .     A
C427   C428    1.410   .     A
C427   C433    1.414   .     A
C428   C429    1.409   .     A
C428   C436    1.406   .     A
C429   N448    1.372   .     A
C429   O459    1.373   .     S
C430   C431    1.397   .     A
C430   H461    1.083   .     S
C431   C432    1.404   .     A
C431   H463    1.084   .     S
C432   C433    1.412   .     A
C432   C437    1.405   .     A
C433   C434    1.406   .     A
C434   C435    1.408   .     A
C434   C438    1.404   .     A
C435   C436    1.398   .     A
C435   H467    1.083   .     S
C436   H462    1.084   .     S
C437   N449    1.367   .     A
C437   O470    1.376   .     S
C438   N449    1.376   .     A
C438   O469    1.371   .     S
C439   C444    1.415   .     A
C439   C445    1.419   .     A
C439   N449    1.442   .     S
C440   C445    1.505   .     S
C440   H464    1.110   .     S
C440   H465    1.107   .     S
C440   H471    1.111   .     S
C441   C445    1.401   .     A
C441   C446    1.398   .     A
C441   H466    1.084   .     S
C442   C444    1.510   .     S
C442   H447    1.110   .     S
C442   H450    1.109   .     S
C442   H468    1.111   .     S
C443   C444    1.400   .     A
C443   C446    1.402   .     A
N448   C420    1.448   1_554 S
H472   C499    1.084   .     S
C473   C474    1.403   .     A
C473   C478    1.401   .     A
C474   C475    1.406   .     A
C474   H507    1.085   .     S
C475   C476    1.416   .     A
C475   C479    1.505   .     S
C476   C477    1.415   .     A
C476   N504    1.450   .     S
C477   C478    1.407   .     A
C477   C480    1.504   .     S
C478   H508    1.083   .     S
C479   H509    1.111   .     S
C479   H510    1.110   .     S
C479   H511    1.110   .     S
C480   H512    1.109   .     S
C480   H513    1.111   .     S
C480   H514    1.110   .     S
C481   C482    1.412   .     A
C481   N504    1.373   .     A
C481   O516    1.373   .     S
C482   C483    1.409   .     A
C482   C486    1.407   .     A
C483   C484    1.409   .     A
C483   C489    1.420   .     A
C484   C485    1.410   .     A
C484   C492    1.406   .     A
C485   N504    1.372   .     A
C485   O515    1.373   .     S
C486   C487    1.401   .     A
C486   H517    1.083   .     S
C487   C488    1.407   .     A
C487   H519    1.083   .     S
C488   C489    1.408   .     A
C488   C493    1.412   .     A
C489   C490    1.409   .     A
C490   C491    1.407   .     A
C490   C494    1.411   .     A
C491   C492    1.400   .     A
C491   H523    1.083   .     S
C492   H518    1.083   .     S
C493   N505    1.374   .     A
C493   O526    1.373   .     S
C494   N505    1.373   .     A
C494   O525    1.373   .     S
C495   C501    1.419   .     A
C495   N505    1.453   .     S
C495   C500    1.417   1_455 A
C496   C501    1.504   .     S
C496   H520    1.108   .     S
C496   H521    1.107   .     S
C496   H527    1.110   .     S
C497   C502    1.400   .     A
C497   H522    1.084   .     S
C497   C501    1.407   1_655 A
C498   H503    1.110   .     S
C498   H506    1.110   .     S
C498   C500    1.505   1_455 S
C498   H524    1.111   1_455 S
C499   C500    1.408   .     A
C499   C502    1.402   .     A
C500   C495    1.417   1_655 A
C500   C498    1.505   1_655 S
C501   C497    1.407   1_455 A
H524   C498    1.111   1_655 S
H528   C555    1.083   .     S
C529   C530    1.401   .     A
C529   C534    1.400   1_545 A
C530   H563    1.084   .     S
C530   C531    1.406   1_545 A
C531   C532    1.416   .     A
C531   C530    1.406   1_565 A
C531   C535    1.504   1_655 S
C532   C533    1.416   .     A
C532   N560    1.450   .     S
C533   C534    1.406   .     A
C533   C536    1.503   .     S
C534   C529    1.400   1_565 A
C534   H564    1.084   1_565 S
C535   H565    1.111   .     S
C535   H566    1.110   .     S
C535   H567    1.109   .     S
C535   C531    1.504   1_455 S
C536   H568    1.109   .     S
C536   H569    1.111   .     S
C536   H570    1.110   .     S
C537   C538    1.413   .     A
C537   O572    1.372   .     S
C537   N560    1.373   1_455 A
C538   C539    1.410   .     A
C538   C542    1.407   .     A
C539   C545    1.418   .     A
C539   C540    1.407   1_455 A
C540   C541    1.408   .     A
C540   C548    1.407   .     A
C540   C539    1.407   1_655 A
C541   N560    1.373   .     A
C541   O571    1.373   .     S
C542   C543    1.401   .     A
C542   H573    1.083   .     S
C543   C544    1.408   .     A
C543   H575    1.084   .     S
C544   C545    1.407   .     A
C544   C549    1.410   .     A
C545   C546    1.410   .     A
C546   C550    1.410   .     A
C546   C547    1.405   1_455 A
C547   C548    1.398   .     A
C547   H579    1.083   .     S
C547   C546    1.405   1_655 A
C548   H574    1.083   .     S
C549   N561    1.374   .     A
C549   O582    1.372   .     S
C550   N561    1.370   .     A
C550   O581    1.373   .     S
C551   C556    1.411   .     A
C551   C557    1.422   .     A
C551   N561    1.449   .     S
C552   C557    1.506   .     S
C552   H576    1.110   .     S
C552   H577    1.111   .     S
C552   H583    1.111   .     S
C553   C557    1.413   .     A
C553   C558    1.404   .     A
C553   H578    1.088   .     S
C554   C556    1.503   .     S
C554   H559    1.108   .     S
C554   H562    1.109   .     S
C554   H580    1.111   .     S
C555   C556    1.394   .     A
C555   C558    1.394   .     A
N560   C537    1.373   1_655 A
H564   C534    1.084   1_545 S
H584   C611    1.082   .     S
C585   C586    1.401   .     A
C585   C590    1.394   .     A
C586   C587    1.410   .     A
C586   H619    1.084   .     S
C587   C588    1.417   .     A
C587   C591    1.504   1_455 S
C588   C589    1.410   .     A
C588   N616    1.440   .     S
C589   C590    1.392   .     A
C589   C592    1.508   .     S
C590   H620    1.084   .     S
C591   H621    1.111   .     S
C591   H622    1.110   .     S
C591   H623    1.110   .     S
C591   C587    1.504   1_655 S
C592   H624    1.109   .     S
C592   H625    1.112   .     S
C592   H626    1.110   .     S
C593   C594    1.402   .     A
C593   N616    1.369   .     A
C593   O628    1.373   .     S
C594   C595    1.408   .     A
C594   C598    1.404   1_455 A
C595   C596    1.409   .     A
C595   C601    1.414   1_455 A
C596   C597    1.408   .     A
C596   C604    1.407   .     A
C597   N616    1.371   .     A
C597   O627    1.372   .     S
C598   C599    1.395   .     A
C598   H629    1.083   .     S
C598   C594    1.404   1_655 A
C599   C600    1.404   .     A
C599   H631    1.083   .     S
C600   C601    1.408   .     A
C600   C605    1.403   .     A
C601   C602    1.409   .     A
C601   C595    1.414   1_655 A
C602   C606    1.408   .     A
C602   C603    1.406   1_655 A
C603   C604    1.399   .     A
C603   H635    1.083   .     S
C603   C602    1.406   1_455 A
C604   H630    1.083   .     S
C605   N617    1.370   .     A
C605   O638    1.373   .     S
C606   N617    1.371   .     A
C606   O637    1.373   .     S
C607   C612    1.414   .     A
C607   C613    1.410   .     A
C607   N617    1.441   .     S
C608   C613    1.511   .     S
C608   H632    1.110   .     S
C608   H633    1.108   .     S
C608   H639    1.111   .     S
C609   C613    1.395   .     A
C609   C614    1.409   .     A
C609   H634    1.084   .     S
C610   H615    1.110   .     S
C610   H618    1.110   .     S
C610   H636    1.110   .     S
C610   C612    1.501   1_455 S
C611   C612    1.411   .     A
C611   C614    1.401   .     A
C612   C610    1.501   1_655 S
H640   C667    1.084   .     S
C641   C642    1.399   .     A
C641   C646    1.399   .     A
C642   C643    1.401   .     A
C642   H675    1.085   .     S
C643   C644    1.415   .     A
C643   C647    1.507   .     S
C644   C645    1.417   .     A
C644   N672    1.448   .     S
C645   C646    1.411   .     A
C645   C648    1.504   .     S
C646   H676    1.083   .     S
C647   H677    1.110   .     S
C647   H678    1.110   .     S
C647   H679    1.108   1_554 S
C648   H680    1.108   .     S
C648   H681    1.111   .     S
C648   H682    1.110   .     S
C649   C650    1.406   .     A
C649   N672    1.371   .     A
C649   O684    1.373   .     S
C650   C651    1.408   .     A
C650   C654    1.405   .     A
C651   C652    1.408   1_554 A
C651   C657    1.416   1_554 A
C652   C653    1.410   .     A
C652   C660    1.407   .     A
C652   C651    1.408   1_556 A
C653   O683    1.372   .     S
C653   N672    1.373   1_556 A
C654   C655    1.397   .     A
C654   H685    1.082   .     S
C655   C656    1.404   .     A
C655   H687    1.083   .     S
C656   C661    1.405   .     A
C656   C657    1.409   1_554 A
C657   C658    1.408   .     A
C657   C651    1.416   1_556 A
C657   C656    1.409   1_556 A
C658   C659    1.406   .     A
C658   C662    1.409   .     A
C659   C660    1.400   .     A
C659   H691    1.083   .     S
C660   H686    1.083   .     S
C661   O694    1.373   .     S
C661   N673    1.370   1_554 A
C662   N673    1.371   .     A
C662   O693    1.373   .     S
C663   C668    1.413   .     A
C663   N673    1.444   .     S
C663   C669    1.414   1_655 A
C664   C669    1.502   .     S
C664   H688    1.110   .     S
C664   H695    1.110   .     S
C664   H689    1.108   1_455 S
C665   C669    1.401   .     A
C665   C670    1.400   .     A
C665   H690    1.084   .     S
C666   C668    1.505   .     S
C666   H671    1.110   .     S
C666   H674    1.111   .     S
C666   H692    1.111   .     S
C667   C670    1.404   .     A
C667   C668    1.405   1_455 A
C668   C667    1.405   1_655 A
C669   C663    1.414   1_455 A
N672   C653    1.373   1_554 A
N673   C661    1.370   1_556 A
H679   C647    1.108   1_556 S
H689   C664    1.108   1_655 S
H696   C723    1.083   .     S
C697   C698    1.399   .     A
C697   C702    1.397   .     A
C698   C699    1.406   .     A
C698   H731    1.085   .     S
C699   C700    1.414   .     A
C699   C703    1.504   .     S
C700   C701    1.408   .     A
C700   N728    1.435   .     S
C701   C702    1.391   .     A
C701   C704    1.505   .     S
C702   H732    1.084   .     S
C703   H733    1.108   .     S
C703   H734    1.110   .     S
C703   H735    1.110   .     S
C704   H736    1.109   .     S
C704   H737    1.112   .     S
C704   H738    1.110   .     S
C705   C706    1.404   .     A
C705   N728    1.370   .     A
C705   O740    1.373   .     S
C706   C707    1.408   .     A
C706   C710    1.405   .     A
C707   C708    1.410   .     A
C707   C713    1.412   .     A
C708   C709    1.402   .     A
C708   C716    1.403   .     A
C709   N728    1.367   .     A
C709   O739    1.374   .     S
C710   C711    1.397   .     A
C710   H741    1.083   .     S
C711   C712    1.405   .     A
C711   H743    1.083   .     S
C712   C713    1.410   .     A
C712   C717    1.407   .     A
C713   C714    1.408   .     A
C714   C715    1.406   .     A
C714   C718    1.403   .     A
C715   C716    1.395   .     A
C715   H747    1.083   .     S
C716   H742    1.084   .     S
C717   N729    1.369   .     A
C717   O750    1.372   .     S
C718   N729    1.371   .     A
C718   O749    1.373   .     S
C719   C724    1.412   .     A
C719   C725    1.413   .     A
C719   N729    1.441   .     S
C720   C725    1.507   .     S
C720   H744    1.111   .     S
C720   H745    1.108   .     S
C720   H751    1.110   .     S
C721   C725    1.400   .     A
C721   C726    1.403   .     A
C721   H746    1.083   .     S
C722   C724    1.505   .     S
C722   H727    1.111   .     S
C722   H730    1.111   .     S
C722   H748    1.111   .     S
C723   C724    1.405   .     A
C723   C726    1.403   .     A
