data_lcy+N505+E229
_audit_creation_date              2025-01-21
_audit_creation_method            'Materials Studio'
_symmetry_space_group_name_H-M    'P1'
_symmetry_Int_Tables_number       1
_symmetry_cell_setting            triclinic
loop_
_symmetry_equiv_pos_as_xyz
  x,y,z
_cell_length_a                    37.7392
_cell_length_b                    38.5640
_cell_length_c                    36.8693
_cell_angle_alpha                 101.2673
_cell_angle_beta                  94.9749
_cell_angle_gamma                 95.1232
loop_
_atom_site_label
_atom_site_type_symbol
_atom_site_fract_x
_atom_site_fract_y
_atom_site_fract_z
_atom_site_U_iso_or_equiv
_atom_site_adp_type
_atom_site_occupancy
Yb0    Yb    0.15320   0.60218   0.80867   0.00000  Uiso   1.00
Yb1    Yb    0.12704   0.67959   0.91415   0.00000  Uiso   1.00
C2     C     0.06580   0.69637   0.90991   0.00000  Uiso   1.00
O3     O     0.09975   0.58501   0.81274   0.00000  Uiso   1.00
O4     O     0.12228   0.57532   0.75908   0.00000  Uiso   1.00
O5     O     0.13810   0.65339   0.80119   0.00000  Uiso   1.00
O6     O     0.12025   0.65703   0.85599   0.00000  Uiso   1.00
O7     O     0.17924   0.55627   0.80944   0.00000  Uiso   1.00
O8     O     0.20505   0.60272   0.79189   0.00000  Uiso   1.00
O9     O     0.17691   0.71015   0.92431   0.00000  Uiso   1.00
O10    O     0.14296   0.70671   0.96924   0.00000  Uiso   1.00
C11    C     0.09517   0.57142   0.77764   0.00000  Uiso   1.00
O12    O     0.17244   0.62577   0.86661   0.00000  Uiso   1.00
O13    O     0.15260   0.63290   0.92205   0.00000  Uiso   1.00
O14    O     0.09285   0.71821   0.90704   0.00000  Uiso   1.00
C15    C     0.12791   0.67217   0.82983   0.00000  Uiso   1.00
O16    O     0.07223   0.66559   0.91614   0.00000  Uiso   1.00
C17    C     0.20653   0.57070   0.79678   0.00000  Uiso   1.00
C18    C     0.17230   0.71962   0.95903   0.00000  Uiso   1.00
C19    C     0.16564   0.61343   0.89531   0.00000  Uiso   1.00
Yb20   Yb    0.66309   0.88374   0.11076   0.00000  Uiso   1.00
Yb21   Yb    0.56266   0.88536   0.18446   0.00000  Uiso   1.00
C22    C     0.54835   0.94278   0.21993   0.00000  Uiso   1.00
O23    O     0.64574   0.91594   0.07420   0.00000  Uiso   1.00
O24    O     0.70277   0.91086   0.08605   0.00000  Uiso   1.00
O25    O     0.66473   0.92896   0.15746   0.00000  Uiso   1.00
O26    O     0.61376   0.90917   0.17376   0.00000  Uiso   1.00
O27    O     0.69122   0.84815   0.13548   0.00000  Uiso   1.00
O28    O     0.67217   0.83564   0.07599   0.00000  Uiso   1.00
O29    O     0.57137   0.83726   0.20208   0.00000  Uiso   1.00
O30    O     0.51802   0.85522   0.19672   0.00000  Uiso   1.00
C31    C     0.67820   0.92420   0.06814   0.00000  Uiso   1.00
O32    O     0.61342   0.86009   0.12531   0.00000  Uiso   1.00
O33    O     0.55552   0.85563   0.12708   0.00000  Uiso   1.00
O34    O     0.56390   0.92037   0.23584   0.00000  Uiso   1.00
C35    C     0.64027   0.93283   0.17933   0.00000  Uiso   1.00
O36    O     0.54076   0.93375   0.18424   0.00000  Uiso   1.00
C37    C     0.68841   0.82601   0.10404   0.00000  Uiso   1.00
C38    C     0.53741   0.83113   0.20414   0.00000  Uiso   1.00
C39    C     0.58222   0.84999   0.10845   0.00000  Uiso   1.00
Yb40   Yb    0.90274   0.05777   0.67528   0.00000  Uiso   1.00
Yb41   Yb    0.87031   0.15244   0.61939   0.00000  Uiso   1.00
C42    C     0.81017   0.17280   0.61579   0.00000  Uiso   1.00
O43    O     0.89493   0.08481   0.72845   0.00000  Uiso   1.00
O44    O     0.86631   0.03196   0.70455   0.00000  Uiso   1.00
O45    O     0.86071   0.08245   0.64993   0.00000  Uiso   1.00
O46    O     0.84581   0.09838   0.59758   0.00000  Uiso   1.00
O47    O     0.94177   0.02513   0.68774   0.00000  Uiso   1.00
O48    O     0.91377   0.01766   0.63151   0.00000  Uiso   1.00
O49    O     0.91241   0.16060   0.58676   0.00000  Uiso   1.00
O50    O     0.89839   0.20320   0.63031   0.00000  Uiso   1.00
C51    C     0.87251   0.05887   0.73207   0.00000  Uiso   1.00
O52    O     0.94304   0.09501   0.66126   0.00000  Uiso   1.00
O53    O     0.90529   0.13518   0.66105   0.00000  Uiso   1.00
O54    O     0.82966   0.17121   0.58858   0.00000  Uiso   1.00
C55    C     0.84604   0.07408   0.61652   0.00000  Uiso   1.00
O56    O     0.82396   0.16365   0.64541   0.00000  Uiso   1.00
C57    C     0.93741   0.00776   0.65364   0.00000  Uiso   1.00
C58    C     0.91786   0.19357   0.60380   0.00000  Uiso   1.00
C59    C     0.93659   0.12604   0.65735   0.00000  Uiso   1.00
Yb60   Yb    0.34362   0.39482   0.27824   0.00000  Uiso   1.00
Yb61   Yb    0.37097   0.33195   0.37781   0.00000  Uiso   1.00
C62    C     0.42368   0.31650   0.41329   0.00000  Uiso   1.00
O63    O     0.36160   0.44024   0.32348   0.00000  Uiso   1.00
O64    O     0.39928   0.41536   0.29088   0.00000  Uiso   1.00
O65    O     0.35777   0.34985   0.30089   0.00000  Uiso   1.00
O66    O     0.39505   0.31920   0.32606   0.00000  Uiso   1.00
O67    O     0.32003   0.43374   0.25443   0.00000  Uiso   1.00
O68    O     0.28756   0.38755   0.26527   0.00000  Uiso   1.00
O69    O     0.31853   0.30698   0.36245   0.00000  Uiso   1.00
O70    O     0.33673   0.33388   0.42009   0.00000  Uiso   1.00
C71    C     0.39414   0.43967   0.31755   0.00000  Uiso   1.00
O72    O     0.32505   0.41331   0.33390   0.00000  Uiso   1.00
O73    O     0.35800   0.38124   0.36284   0.00000  Uiso   1.00
O74    O     0.39697   0.29290   0.39915   0.00000  Uiso   1.00
C75    C     0.38478   0.33234   0.29824   0.00000  Uiso   1.00
O76    O     0.42121   0.34830   0.40792   0.00000  Uiso   1.00
C77    C     0.28888   0.41681   0.25337   0.00000  Uiso   1.00
C78    C     0.31143   0.31532   0.39650   0.00000  Uiso   1.00
C79    C     0.33054   0.39787   0.36152   0.00000  Uiso   1.00
C80    C     0.54252   0.78296   0.02251   0.00000  Uiso   1.00
C81    C     0.56658   0.78890  -0.00311   0.00000  Uiso   1.00
C82    C     0.59474   0.81602   0.00711   0.00000  Uiso   1.00
C83    C     0.59915   0.83705   0.04289   0.00000  Uiso   1.00
C84    C     0.57606   0.83084   0.06924   0.00000  Uiso   1.00
C85    C     0.54720   0.80414   0.05849   0.00000  Uiso   1.00
C86    C     0.51047   0.75606   0.01097   0.00000  Uiso   1.00
H87    H     0.56320   0.77299   0.96892   0.00000  Uiso   1.00
H88    H     0.61311   0.82094  -0.01275   0.00000  Uiso   1.00
H89    H     0.62050   0.85807   0.04957   0.00000  Uiso   1.00
H90    H     0.52863   0.79933   0.07830   0.00000  Uiso   1.00
H91    H     0.51604   0.73418  -0.01160   0.00000  Uiso   1.00
H92    H     0.50391   0.74433   0.03523   0.00000  Uiso   1.00
C93    C     0.25726   0.77988   0.99758   0.00000  Uiso   1.00
C94    C     0.23032   0.75821   0.97267   0.00000  Uiso   1.00
C95    C     0.29104   0.79306   0.98376   0.00000  Uiso   1.00
C96    C     0.35278   0.78321   0.98075   0.00000  Uiso   1.00
C97    C     0.38048   0.75896   0.98981   0.00000  Uiso   1.00
C98    C     0.25333   0.78722   1.03573   0.00000  Uiso   1.00
C99    C     0.22228   0.77379   1.04862   0.00000  Uiso   1.00
C100   C     0.19948   0.74386   0.98550   0.00000  Uiso   1.00
H101   H     0.27438   0.80317   0.05543   0.00000  Uiso   1.00
H102   H     0.21929   0.77972   0.07807   0.00000  Uiso   1.00
H103   H     0.17159   0.74195   1.03429   0.00000  Uiso   1.00
H104   H     0.23384   0.75196   0.94332   0.00000  Uiso   1.00
H105   H     0.29962   0.82096   0.99856   0.00000  Uiso   1.00
C106   C     0.44660   0.75400  -0.00223   0.00000  Uiso   1.00
C107   C     0.41763   0.77542   0.98550   0.00000  Uiso   1.00
H108   H     0.35096   0.78355   0.95053   0.00000  Uiso   1.00
H109   H     0.37933   0.75557   0.01898   0.00000  Uiso   1.00
H110   H     0.37459   0.73251   0.97075   0.00000  Uiso   1.00
H111   H     0.36097   0.81066   0.99714   0.00000  Uiso   1.00
H112   H     0.28655   0.79270   0.95343   0.00000  Uiso   1.00
H113   H     0.44309   0.74995   0.02637   0.00000  Uiso   1.00
H114   H     0.44471   0.72788   0.97819   0.00000  Uiso   1.00
N115   N     0.48111   0.77414  -0.00236   0.00000  Uiso   1.00
N116   N     0.31827   0.76980   0.99058   0.00000  Uiso   1.00
C117   C     0.19534   0.75228   1.02368   0.00000  Uiso   1.00
C118   C     0.45439   0.30346   0.23345   0.00000  Uiso   1.00
C119   C     0.44290   0.31665   0.20211   0.00000  Uiso   1.00
C120   C     0.41223   0.33436   0.20177   0.00000  Uiso   1.00
C121   C     0.39314   0.33965   0.23286   0.00000  Uiso   1.00
C122   C     0.40497   0.32788   0.26514   0.00000  Uiso   1.00
C123   C     0.43555   0.30941   0.26490   0.00000  Uiso   1.00
C124   C     0.48504   0.28107   0.23273   0.00000  Uiso   1.00
H125   H     0.45699   0.31228   0.17752   0.00000  Uiso   1.00
H126   H     0.40280   0.34338   0.17702   0.00000  Uiso   1.00
H127   H     0.36882   0.35221   0.23105   0.00000  Uiso   1.00
H128   H     0.44440   0.29877   0.28884   0.00000  Uiso   1.00
H129   H     0.49937   0.28232   0.20781   0.00000  Uiso   1.00
H130   H     0.50424   0.29134   0.25800   0.00000  Uiso   1.00
C131   C     0.51577   0.03405   0.24524   0.00000  Uiso   1.00
C132   C     0.52252   0.00110   0.22441   0.00000  Uiso   1.00
C133   C     0.49381   0.05831   0.22768   0.00000  Uiso   1.00
C134   C     0.48858   0.11958   0.22610   0.00000  Uiso   1.00
C135   C     0.50880   0.15656   0.23133   0.00000  Uiso   1.00
C136   C     0.52783   0.04327   0.28334   0.00000  Uiso   1.00
C137   C     0.54606   1.01984   0.30045   0.00000  Uiso   1.00
C138   C     0.54063   0.97727   0.24162   0.00000  Uiso   1.00
H139   H     0.52291   0.06853   0.29983   0.00000  Uiso   1.00
H140   H     0.55530   1.02710   0.32984   0.00000  Uiso   1.00
H141   H     0.56627   0.96916   0.29381   0.00000  Uiso   1.00
H142   H     0.51327  -0.00611   0.19500   0.00000  Uiso   1.00
H143   H     0.46826   0.05918   0.24065   0.00000  Uiso   1.00
C144   C     0.49932   0.22114   0.23204   0.00000  Uiso   1.00
C145   C     0.48193   0.18319   0.22726   0.00000  Uiso   1.00
H146   H     0.47547   0.11148   0.19704   0.00000  Uiso   1.00
H147   H     0.52382   0.16396   0.25952   0.00000  Uiso   1.00
H148   H     0.52792   0.15666   0.21003   0.00000  Uiso   1.00
H149   H     0.46767   0.12061   0.24572   0.00000  Uiso   1.00
H150   H     0.48731   0.04775   0.19729   0.00000  Uiso   1.00
H151   H     0.51649   0.22882   0.25903   0.00000  Uiso   1.00
H152   H     0.51576   0.22284   0.20870   0.00000  Uiso   1.00
N153   N     0.47078   0.24432   0.23166   0.00000  Uiso   1.00
N154   N     0.51322   0.09397   0.23367   0.00000  Uiso   1.00
C155   C     0.55220   0.98693   0.27985   0.00000  Uiso   1.00
C156   C     0.72652   0.20750   0.57794   0.00000  Uiso   1.00
C157   C     0.70595   0.20853   0.60803   0.00000  Uiso   1.00
C158   C     0.71881   0.19683   0.63977   0.00000  Uiso   1.00
C159   C     0.75266   0.18494   0.64232   0.00000  Uiso   1.00
C160   C     0.77396   0.18442   0.61289   0.00000  Uiso   1.00
C161   C     0.76049   0.19529   0.58055   0.00000  Uiso   1.00
C162   C     0.71350   0.22166   0.54435   0.00000  Uiso   1.00
H163   H     0.68016   0.21878   0.60723   0.00000  Uiso   1.00
H164   H     0.70264   0.19731   0.66267   0.00000  Uiso   1.00
H165   H     0.76224   0.17634   0.66735   0.00000  Uiso   1.00
H166   H     0.77671   0.19490   0.55764   0.00000  Uiso   1.00
H167   H     0.71048   0.25041   0.55362   0.00000  Uiso   1.00
H168   H     0.73395   0.22021   0.52431   0.00000  Uiso   1.00
C169   C     0.49106   0.26448   0.45641   0.00000  Uiso   1.00
C170   C     0.46077   0.27251   0.43584   0.00000  Uiso   1.00
C171   C     0.49550   0.22599   0.45715   0.00000  Uiso   1.00
C172   C     0.55451   0.20973   0.47608   0.00000  Uiso   1.00
C173   C     0.58368   0.21952   0.50890   0.00000  Uiso   1.00
C174   C     0.51644   0.29252   0.47554   0.00000  Uiso   1.00
C175   C     0.51136   0.32773   0.47446   0.00000  Uiso   1.00
C176   C     0.45558   0.30795   0.43465   0.00000  Uiso   1.00
H177   H     0.54029   0.28744   0.49127   0.00000  Uiso   1.00
H178   H     0.53092   0.34911   0.48944   0.00000  Uiso   1.00
H179   H     0.47788   0.36304   0.45382   0.00000  Uiso   1.00
H180   H     0.44127   0.25108   0.42076   0.00000  Uiso   1.00
H181   H     0.50265   0.21241   0.42968   0.00000  Uiso   1.00
C182   C     0.65030   0.22257   0.52591   0.00000  Uiso   1.00
C183   C     0.61793   0.20247   0.50014   0.00000  Uiso   1.00
H184   H     0.54999   0.18037   0.46630   0.00000  Uiso   1.00
H185   H     0.58944   0.24900   0.51594   0.00000  Uiso   1.00
H186   H     0.57392   0.21044   0.53344   0.00000  Uiso   1.00
H187   H     0.56335   0.22218   0.45308   0.00000  Uiso   1.00
H188   H     0.46926   0.21258   0.46122   0.00000  Uiso   1.00
H189   H     0.65772   0.24748   0.51607   0.00000  Uiso   1.00
H190   H     0.64316   0.22926   0.55486   0.00000  Uiso   1.00
N191   N     0.68025   0.20080   0.52508   0.00000  Uiso   1.00
N192   N     0.52124   0.22274   0.48826   0.00000  Uiso   1.00
C193   C     0.48122   0.33547   0.45410   0.00000  Uiso   1.00
C194   C     0.80091   0.06418   0.79759   0.00000  Uiso   1.00
C195   C     0.82197   0.06867   0.83192   0.00000  Uiso   1.00
C196   C     0.85913   0.06923   0.83326   0.00000  Uiso   1.00
C197   C     0.87565   0.06555   0.80050   0.00000  Uiso   1.00
C198   C     0.85493   0.06044   0.76609   0.00000  Uiso   1.00
C199   C     0.81764   0.05956   0.76464   0.00000  Uiso   1.00
C200   C     0.76104   0.06556   0.79608   0.00000  Uiso   1.00
H201   H     0.80992   0.07234   0.85776   0.00000  Uiso   1.00
H202   H     0.87523   0.07308   0.85979   0.00000  Uiso   1.00
H203   H     0.90455   0.06661   0.80190   0.00000  Uiso   1.00
H204   H     0.80183   0.05649   0.73800   0.00000  Uiso   1.00
H205   H     0.75490   0.09039   0.81436   0.00000  Uiso   1.00
H206   H     0.74992   0.06692   0.76757   0.00000  Uiso   1.00
C207   C     0.72345   0.96544   0.99600   0.00000  Uiso   1.00
C208   C     0.71729   0.94517   0.02319   0.00000  Uiso   1.00
C209   C     0.75688   0.96184   0.97629   0.00000  Uiso   1.00
C210   C     0.75491   0.98146   0.91726   0.00000  Uiso   1.00
C211   C     0.74924   0.01485   0.90213   0.00000  Uiso   1.00
C212   C     0.69792   0.98794   0.98740   0.00000  Uiso   1.00
C213   C     0.66749   0.99079   0.00628   0.00000  Uiso   1.00
C214   C     0.68616   0.94728   0.04157   0.00000  Uiso   1.00
H215   H     0.70105   1.00313   0.96590   0.00000  Uiso   1.00
H216   H     0.64830   1.00854  -0.00017   0.00000  Uiso   1.00
H217   H     0.63748   0.97292   0.04707   0.00000  Uiso   1.00
H218   H     0.73637   0.92715   0.02934   0.00000  Uiso   1.00
H219   H     0.75445   0.93550   0.95689   0.00000  Uiso   1.00
C220   C     0.73555   0.03841   0.84397   0.00000  Uiso   1.00
C221   C     0.74577   1.00657   0.85974   0.00000  Uiso   1.00
H222   H     0.77693   0.96809   0.90420   0.00000  Uiso   1.00
H223   H     0.72451   0.02544   0.91188   0.00000  Uiso   1.00
H224   H     0.77236   0.03539   0.91261   0.00000  Uiso   1.00
H225   H     0.72968   0.96309   0.91032   0.00000  Uiso   1.00
H226   H     0.77998   0.96230   0.99729   0.00000  Uiso   1.00
H227   H     0.70640   0.04001   0.84475   0.00000  Uiso   1.00
H228   H     0.74991   0.06323   0.86160   0.00000  Uiso   1.00
N229   N     0.74367   0.03327   0.80526   0.00000  Uiso   1.00
N230   N     0.76464   0.99152   0.95757   0.00000  Uiso   1.00
C231   C     0.66149   0.97050   0.03305   0.00000  Uiso   1.00
C232   C     0.78189   1.00019   0.55435   0.00000  Uiso   1.00
C233   C     0.78909   0.97089   0.57002   0.00000  Uiso   1.00
C234   C     0.81430   0.97517   0.60092   0.00000  Uiso   1.00
C235   C     0.83291   0.00849   0.61602   0.00000  Uiso   1.00
C236   C     0.82774   0.03792   0.59975   0.00000  Uiso   1.00
C237   C     0.80181   0.03341   0.56875   0.00000  Uiso   1.00
C238   C     0.75072   0.99689   0.52510   0.00000  Uiso   1.00
H239   H     0.77435   0.94498   0.55920   0.00000  Uiso   1.00
H240   H     0.81880   0.95279   0.61383   0.00000  Uiso   1.00
H241   H     0.85102   0.01091   0.64050   0.00000  Uiso   1.00
H242   H     0.79570   0.05605   0.55686   0.00000  Uiso   1.00
H243   H     0.73616   0.96967   0.51977   0.00000  Uiso   1.00
H244   H     0.73195   1.01615   0.53586   0.00000  Uiso   1.00
C245   C     0.67702   1.00041   0.26572   0.00000  Uiso   1.00
C246   C     0.67255   0.96974   0.23733   0.00000  Uiso   1.00
C247   C     0.70853   0.00685   0.29497   0.00000  Uiso   1.00
C248   C     0.72656   1.00878   0.35955   0.00000  Uiso   1.00
C249   C     0.71306   1.00417   0.39627   0.00000  Uiso   1.00
C250   C     0.65205   0.02536   0.26616   0.00000  Uiso   1.00
C251   C     0.62334   0.01993   0.23832   0.00000  Uiso   1.00
C252   C     0.64348   0.96406   0.20971   0.00000  Uiso   1.00
H253   H     0.65508   0.04918   0.28782   0.00000  Uiso   1.00
H254   H     0.60429   0.03935   0.23865   0.00000  Uiso   1.00
H255   H     0.59753   0.98613   0.18788   0.00000  Uiso   1.00
H256   H     0.69160   0.95023   0.23669   0.00000  Uiso   1.00
H257   H     0.72284   0.03358   0.29600   0.00000  Uiso   1.00
C258   C     0.73192   1.00155   0.46281   0.00000  Uiso   1.00
C259   C     0.74453   1.00773   0.42626   0.00000  Uiso   1.00
H260   H     0.74474   0.98811   0.35118   0.00000  Uiso   1.00
H261   H     0.69493   1.02473   0.40503   0.00000  Uiso   1.00
H262   H     0.69787   0.97740   0.39236   0.00000  Uiso   1.00
H263   H     0.74158   0.03563   0.36322   0.00000  Uiso   1.00
H264   H     0.72749   0.98669   0.28773   0.00000  Uiso   1.00
H265   H     0.71389   1.02191   0.47270   0.00000  Uiso   1.00
H266   H     0.71701   0.97454   0.45798   0.00000  Uiso   1.00
N267   N     0.76285   1.00430   0.49046   0.00000  Uiso   1.00
N268   N     0.69610   1.00488   0.33109   0.00000  Uiso   1.00
C269   C     0.61927   0.98955   0.20991   0.00000  Uiso   1.00
C270   C     0.29329   0.40423   0.45444   0.00000  Uiso   1.00
C271   C     0.25642   0.40081   0.44316   0.00000  Uiso   1.00
C272   C     0.24406   0.39737   0.40567   0.00000  Uiso   1.00
C273   C     0.26833   0.39678   0.37908   0.00000  Uiso   1.00
C274   C     0.30525   0.39953   0.38985   0.00000  Uiso   1.00
C275   C     0.31765   0.40416   0.42767   0.00000  Uiso   1.00
C276   C     0.30620   0.40623   0.49457   0.00000  Uiso   1.00
H277   H     0.23728   0.40053   0.46340   0.00000  Uiso   1.00
H278   H     0.21560   0.39476   0.39716   0.00000  Uiso   1.00
H279   H     0.25830   0.39346   0.35002   0.00000  Uiso   1.00
H280   H     0.34617   0.40694   0.43611   0.00000  Uiso   1.00
H281   H     0.29290   0.38279   0.50346   0.00000  Uiso   1.00
H282   H     0.33560   0.40497   0.49820   0.00000  Uiso   1.00
C283   C     0.28218   0.53539   0.74483   0.00000  Uiso   1.00
C284   C     0.25497   0.55629   0.75639   0.00000  Uiso   1.00
C285   C     0.29881   0.53850   0.70980   0.00000  Uiso   1.00
C286   C     0.29941   0.50814   0.64594   0.00000  Uiso   1.00
C287   C     0.29345   0.47139   0.62050   0.00000  Uiso   1.00
C288   C     0.29241   0.51003   0.76517   0.00000  Uiso   1.00
C289   C     0.27495   0.50487   0.79592   0.00000  Uiso   1.00
C290   C     0.23710   0.55089   0.78709   0.00000  Uiso   1.00
H291   H     0.31338   0.49374   0.75667   0.00000  Uiso   1.00
H292   H     0.28253   0.48480   0.81103   0.00000  Uiso   1.00
H293   H     0.23340   0.52017   0.83010   0.00000  Uiso   1.00
H294   H     0.24650   0.57549   0.74046   0.00000  Uiso   1.00
H295   H     0.32835   0.54410   0.71628   0.00000  Uiso   1.00
C296   C     0.29903   0.43690   0.55629   0.00000  Uiso   1.00
C297   C     0.29836   0.47372   0.58034   0.00000  Uiso   1.00
H298   H     0.28226   0.52634   0.63452   0.00000  Uiso   1.00
H299   H     0.31282   0.45436   0.63058   0.00000  Uiso   1.00
H300   H     0.26583   0.45915   0.62152   0.00000  Uiso   1.00
H301   H     0.32804   0.51879   0.64758   0.00000  Uiso   1.00
H302   H     0.28875   0.56078   0.69818   0.00000  Uiso   1.00
H303   H     0.32403   0.42613   0.56518   0.00000  Uiso   1.00
H304   H     0.27543   0.41904   0.56010   0.00000  Uiso   1.00
N305   N     0.29780   0.43953   0.51718   0.00000  Uiso   1.00
N306   N     0.28988   0.50489   0.68285   0.00000  Uiso   1.00
C307   C     0.24711   0.52491   0.80659   0.00000  Uiso   1.00
C308   C     0.20074   0.53551   0.92925   0.00000  Uiso   1.00
C309   C     0.17996   0.50689   0.90494   0.00000  Uiso   1.00
C310   C     0.15406   0.51320   0.87833   0.00000  Uiso   1.00
C311   C     0.14916   0.54800   0.87532   0.00000  Uiso   1.00
C312   C     0.17109   0.57674   0.89787   0.00000  Uiso   1.00
C313   C     0.19640   0.57046   0.92534   0.00000  Uiso   1.00
C314   C     0.22590   0.52860   0.96027   0.00000  Uiso   1.00
H315   H     0.18313   0.47977   0.90736   0.00000  Uiso   1.00
H316   H     0.13732   0.49114   0.86039   0.00000  Uiso   1.00
H317   H     0.12819   0.55239   0.85551   0.00000  Uiso   1.00
H318   H     0.21230   0.59277   0.94392   0.00000  Uiso   1.00
H319   H     0.24578   0.51129   0.94826   0.00000  Uiso   1.00
H320   H     0.24052   0.55402   0.97648   0.00000  Uiso   1.00
C321   C     0.21403   0.43837   0.18964   0.00000  Uiso   1.00
C322   C     0.24396   0.42316   0.20236   0.00000  Uiso   1.00
C323   C     0.20156   0.43170   0.14888   0.00000  Uiso   1.00
C324   C     0.20233   0.45802   0.09492   0.00000  Uiso   1.00
C325   C     0.22405   0.48415   0.07708   0.00000  Uiso   1.00
C326   C     0.19684   0.46129   0.21520   0.00000  Uiso   1.00
C327   C     0.20919   0.46861   0.25304   0.00000  Uiso   1.00
C328   C     0.25650   0.43083   0.24027   0.00000  Uiso   1.00
H329   H     0.17405   0.47366   0.20578   0.00000  Uiso   1.00
H330   H     0.19596   0.48643   0.27261   0.00000  Uiso   1.00
H331   H     0.24859   0.45963   0.29492   0.00000  Uiso   1.00
H332   H     0.25783   0.40596   0.18278   0.00000  Uiso   1.00
H333   H     0.17184   0.43036   0.14498   0.00000  Uiso   1.00
C334   C     0.22718   0.50819   0.01815   0.00000  Uiso   1.00
C335   C     0.20570   0.48445   0.03867   0.00000  Uiso   1.00
H336   H     0.20252   0.43065   0.07826   0.00000  Uiso   1.00
H337   H     0.22604   0.51129   0.09472   0.00000  Uiso   1.00
H338   H     0.25141   0.47598   0.07462   0.00000  Uiso   1.00
H339   H     0.17426   0.46472   0.09515   0.00000  Uiso   1.00
H340   H     0.20935   0.40577   0.13457   0.00000  Uiso   1.00
H341   H     0.23400   0.53514   0.03607   0.00000  Uiso   1.00
H342   H     0.25211   0.49621   0.01114   0.00000  Uiso   1.00
N343   N     0.20519   0.51077  -0.01559   0.00000  Uiso   1.00
N344   N     0.21803   0.46039   0.13312   0.00000  Uiso   1.00
C345   C     0.23894   0.45342   0.26559   0.00000  Uiso   1.00
C346   C     0.23900   0.29482   0.45707   0.00000  Uiso   1.00
C347   C     0.21270   0.27467   0.42994   0.00000  Uiso   1.00
C348   C     0.21760   0.27003   0.39226   0.00000  Uiso   1.00
C349   C     0.24927   0.28426   0.38123   0.00000  Uiso   1.00
C350   C     0.27654   0.30333   0.40794   0.00000  Uiso   1.00
C351   C     0.27097   0.30888   0.44581   0.00000  Uiso   1.00
C352   C     0.23415   0.29932   0.49792   0.00000  Uiso   1.00
H353   H     0.18838   0.26249   0.43790   0.00000  Uiso   1.00
H354   H     0.19701   0.25480   0.37155   0.00000  Uiso   1.00
H355   H     0.25270   0.27971   0.35186   0.00000  Uiso   1.00
H356   H     0.29201   0.32308   0.46664   0.00000  Uiso   1.00
H357   H     0.24231   0.27538   0.50770   0.00000  Uiso   1.00
H358   H     0.25233   0.32244   0.51418   0.00000  Uiso   1.00
C359   C    -0.00452   0.23343   0.56031   0.00000  Uiso   1.00
C360   C     0.96968   0.20836   0.56888   0.00000  Uiso   1.00
C361   C     0.02171   0.22207   0.53291   0.00000  Uiso   1.00
C362   C     0.07899   0.25369   0.52725   0.00000  Uiso   1.00
C363   C     0.11896   0.25809   0.54068   0.00000  Uiso   1.00
C364   C    -0.00477   0.26967   0.57587   0.00000  Uiso   1.00
C365   C     0.96971   0.28070   0.59958   0.00000  Uiso   1.00
C366   C     0.94468   0.21938   0.59376   0.00000  Uiso   1.00
H367   H     0.01451   0.28944   0.56928   0.00000  Uiso   1.00
H368   H     0.96896   0.30869   0.61072   0.00000  Uiso   1.00
H369   H     0.92542   0.26506   0.62739   0.00000  Uiso   1.00
H370   H     0.96917   0.18041   0.55636   0.00000  Uiso   1.00
H371   H     0.01504   0.23334   0.50787   0.00000  Uiso   1.00
C372   C     0.17968   0.27946   0.52262   0.00000  Uiso   1.00
C373   C     0.13939   0.28172   0.51877   0.00000  Uiso   1.00
H374   H     0.07529   0.23959   0.49755   0.00000  Uiso   1.00
H375   H     0.12340   0.27064   0.57075   0.00000  Uiso   1.00
H376   H     0.12880   0.23141   0.53658   0.00000  Uiso   1.00
H377   H     0.06922   0.28031   0.52945   0.00000  Uiso   1.00
H378   H     0.01859   0.19268   0.52359   0.00000  Uiso   1.00
H379   H     0.19027   0.28502   0.55252   0.00000  Uiso   1.00
H380   H     0.18451   0.25208   0.50919   0.00000  Uiso   1.00
N381   N     0.19713   0.30581   0.50425   0.00000  Uiso   1.00
N382   N     0.05871   0.23340   0.54992   0.00000  Uiso   1.00
C383   C     0.94488   0.25578   0.60884   0.00000  Uiso   1.00
C384   C     1.00593   0.94165   0.65264   0.00000  Uiso   1.00
C385   C     1.00183   0.92494   0.61493   0.00000  Uiso   1.00
C386   C     0.97644   0.93478   0.59010   0.00000  Uiso   1.00
C387   C     0.95488  -0.03870   0.60275   0.00000  Uiso   1.00
C388   C     0.95886  -0.02147   0.64043   0.00000  Uiso   1.00
C389   C     0.98435   0.96835   0.66527   0.00000  Uiso   1.00
C390   C     1.03346   0.93122   0.67914   0.00000  Uiso   1.00
H391   H     1.01849   0.90447   0.60475   0.00000  Uiso   1.00
H392   H     0.97363   0.92198   0.56095   0.00000  Uiso   1.00
H393   H     0.93542  -0.03145   0.58298   0.00000  Uiso   1.00
H394   H     0.98765   0.98129   0.69439   0.00000  Uiso   1.00
H395   H     1.05745   0.92492   0.66453   0.00000  Uiso   1.00
H396   H     0.04208   0.95373   0.70306   0.00000  Uiso   1.00
C397   C     0.09657   0.76179   0.82853   0.00000  Uiso   1.00
C398   C     0.09736   0.72483   0.82248   0.00000  Uiso   1.00
C399   C     0.06436   0.77728   0.81432   0.00000  Uiso   1.00
C400   C     0.04523   0.81379   0.77149   0.00000  Uiso   1.00
C401   C     0.06001   0.83798   0.74704   0.00000  Uiso   1.00
C402   C     0.12692   0.78438   0.84661   0.00000  Uiso   1.00
C403   C     0.15794   0.77013   0.85750   0.00000  Uiso   1.00
C404   C     0.12825   0.71063   0.83391   0.00000  Uiso   1.00
H405   H     0.12669   0.81299   0.85167   0.00000  Uiso   1.00
H406   H     0.18143   0.78763   0.87092   0.00000  Uiso   1.00
H407   H     0.18299   0.72254   0.85922   0.00000  Uiso   1.00
H408   H     0.07411   0.70709   0.80881   0.00000  Uiso   1.00
H409   H     0.05479   0.79538   0.83792   0.00000  Uiso   1.00
C410   C     0.04672   0.88357   0.70941   0.00000  Uiso   1.00
C411   C     0.03069   0.85687   0.73055   0.00000  Uiso   1.00
H412   H     0.02454   0.79315   0.75475   0.00000  Uiso   1.00
H413   H     0.08094   0.85807   0.76422   0.00000  Uiso   1.00
H414   H     0.07246   0.82190   0.72411   0.00000  Uiso   1.00
H415   H     0.03312   0.83001   0.79465   0.00000  Uiso   1.00
H416   H     0.04236   0.75594   0.80196   0.00000  Uiso   1.00
H417   H     0.06573   0.90377   0.72915   0.00000  Uiso   1.00
H418   H     1.06127   0.86945   0.68699   0.00000  Uiso   1.00
N419   N     1.01819   0.90060   0.69284   0.00000  Uiso   1.00
N420   N     0.07487   0.79681   0.78609   0.00000  Uiso   1.00
C421   C     0.15875   0.73331   0.85086   0.00000  Uiso   1.00
C422   C     0.02824   0.49924   0.71877   0.00000  Uiso   1.00
C423   C    -0.00340   0.50787   0.73413   0.00000  Uiso   1.00
C424   C    -0.00302   0.53810   0.76214   0.00000  Uiso   1.00
C425   C     0.02907   0.55943   0.77569   0.00000  Uiso   1.00
C426   C     0.06087   0.55137   0.76037   0.00000  Uiso   1.00
C427   C     0.06012   0.52183   0.73112   0.00000  Uiso   1.00
C428   C     0.02843   0.46468   0.69162   0.00000  Uiso   1.00
H429   H    -0.02818   0.49072   0.72499   0.00000  Uiso   1.00
H430   H    -0.02741   0.54444   0.77416   0.00000  Uiso   1.00
H431   H     0.02917   0.58200   0.79842   0.00000  Uiso   1.00
H432   H     0.08471   0.51517   0.71965   0.00000  Uiso   1.00
H433   H     0.00751   0.46290   0.66794   0.00000  Uiso   1.00
H434   H     0.05486   0.46340   0.68040   0.00000  Uiso   1.00
C435   C     1.00453   0.20715   0.67153   0.00000  Uiso   1.00
C436   C     0.97434   0.18445   0.67526   0.00000  Uiso   1.00
C437   C     1.01496   0.24204   0.69860   0.00000  Uiso   1.00
C438   C     1.01078   0.30527   0.70382   0.00000  Uiso   1.00
C439   C     0.02529   0.33566   0.68630   0.00000  Uiso   1.00
C440   C     1.02565   0.19654   0.64266   0.00000  Uiso   1.00
C441   C     1.01747   0.16340   0.61867   0.00000  Uiso   1.00
C442   C     0.96595   0.15112   0.65097   0.00000  Uiso   1.00
H443   H     1.04867   0.21383   0.63898   0.00000  Uiso   1.00
H444   H     1.03389   0.15544   0.59648   0.00000  Uiso   1.00
H445   H     0.98243   0.11468   0.60486   0.00000  Uiso   1.00
H446   H     0.95800   0.19226   0.69764   0.00000  Uiso   1.00
H447   H     1.04279   0.24231   0.71151   0.00000  Uiso   1.00
C448   C     0.02782   0.40149   0.68800   0.00000  Uiso   1.00
C449   C     1.01674   0.37149   0.70757   0.00000  Uiso   1.00
H450   H     0.98212   0.30734   0.70801   0.00000  Uiso   1.00
H451   H     0.05477   0.33582   0.68644   0.00000  Uiso   1.00
H452   H     0.01325   0.33156   0.65709   0.00000  Uiso   1.00
H453   H     1.02645   0.30722   0.73133   0.00000  Uiso   1.00
H454   H     0.99709   0.24503   0.72129   0.00000  Uiso   1.00
H455   H     0.05682   0.40182   0.68447   0.00000  Uiso   1.00
H456   H     0.01200   0.39688   0.66026   0.00000  Uiso   1.00
N457   N     0.02109   0.43529   0.71073   0.00000  Uiso   1.00
N458   N     1.01356   0.27134   0.67871   0.00000  Uiso   1.00
C459   C     0.98812   0.14053   0.62319   0.00000  Uiso   1.00
C460   C     0.73029   0.74346   0.06355   0.00000  Uiso   1.00
C461   C     0.73330   0.72697   0.09426   0.00000  Uiso   1.00
C462   C     0.72128   0.74250   0.12778   0.00000  Uiso   1.00
C463   C     0.70665   0.77487   0.13105   0.00000  Uiso   1.00
C464   C     0.70309   0.79150   0.10042   0.00000  Uiso   1.00
C465   C     0.71446   0.77537   0.06652   0.00000  Uiso   1.00
C466   C     0.74720   0.72879   0.02929   0.00000  Uiso   1.00
H467   H     0.74572   0.70249   0.09238   0.00000  Uiso   1.00
H468   H     0.72384   0.72967   0.15140   0.00000  Uiso   1.00
H469   H     0.69787   0.78678   0.15739   0.00000  Uiso   1.00
H470   H     0.71248   0.78843   0.04302   0.00000  Uiso   1.00
H471   H     0.73767   0.70001   0.01967   0.00000  Uiso   1.00
H472   H     0.73988   0.74289   0.00654   0.00000  Uiso   1.00
C473   C    -0.02267   0.72819   0.93306   0.00000  Uiso   1.00
C474   C     0.01167   0.71717   0.93703   0.00000  Uiso   1.00
C475   C     0.95878   0.74150   0.96665   0.00000  Uiso   1.00
C476   C     0.90419   0.73376   0.99479   0.00000  Uiso   1.00
C477   C     0.86654   0.71429  -0.01255   0.00000  Uiso   1.00
C478   C    -0.03936   0.72748   0.89727   0.00000  Uiso   1.00
C479   C    -0.02173   0.71631   0.86596   0.00000  Uiso   1.00
C480   C     0.02934   0.70611   0.90561   0.00000  Uiso   1.00
H481   H     0.93405   0.73567   0.89367   0.00000  Uiso   1.00
H482   H    -0.03463   0.71601   0.83848   0.00000  Uiso   1.00
H483   H     0.02601   0.69728   0.84560   0.00000  Uiso   1.00
H484   H     0.02494   0.71785   0.96448   0.00000  Uiso   1.00
H485   H     0.95406   0.76960   0.96677   0.00000  Uiso   1.00
C486   C     0.80468   0.71666   0.00860   0.00000  Uiso   1.00
C487   C     0.84420   0.72998   0.01773   0.00000  Uiso   1.00
H488   H     0.91729   0.73007   0.02179   0.00000  Uiso   1.00
H489   H     0.85426   0.71743   0.95991   0.00000  Uiso   1.00
H490   H     0.86769   0.68554  -0.01279   0.00000  Uiso   1.00
H491   H     0.90235   0.76265   0.99611   0.00000  Uiso   1.00
H492   H     0.97568   0.74073   0.99271   0.00000  Uiso   1.00
H493   H     0.79469   0.72341  -0.01819   0.00000  Uiso   1.00
H494   H     0.80084   0.68736   0.00634   0.00000  Uiso   1.00
N495   N     0.78596   0.73409   0.03886   0.00000  Uiso   1.00
N496   N     0.92484   0.71940   0.96464   0.00000  Uiso   1.00
C497   C     0.01260   0.70579   0.87007   0.00000  Uiso   1.00
C498   C     0.52450   0.74247   0.23521   0.00000  Uiso   1.00
C499   C     0.48722   0.73467   0.22745   0.00000  Uiso   1.00
C500   C     0.46683   0.75824   0.21313   0.00000  Uiso   1.00
C501   C     0.48338   0.78969   0.20610   0.00000  Uiso   1.00
C502   C     0.52074   0.79803   0.21322   0.00000  Uiso   1.00
C503   C     0.54128   0.77417   0.22784   0.00000  Uiso   1.00
C504   C     0.54582   0.71608   0.24994   0.00000  Uiso   1.00
H505   H     0.47391   0.71029   0.23261   0.00000  Uiso   1.00
H506   H     0.43811   0.75201   0.20722   0.00000  Uiso   1.00
H507   H     0.46691   0.80723   0.19439   0.00000  Uiso   1.00
H508   H     0.57009   0.78004   0.23322   0.00000  Uiso   1.00
H509   H     0.54480   0.69225   0.22710   0.00000  Uiso   1.00
H510   H     0.57435   0.72687   0.25760   0.00000  Uiso   1.00
C511   C     0.45169   0.52479   0.36359   0.00000  Uiso   1.00
C512   C     0.42187   0.50123   0.34581   0.00000  Uiso   1.00
C513   C     0.45209   0.56414   0.36607   0.00000  Uiso   1.00
C514   C     0.47877   0.61285   0.34155   0.00000  Uiso   1.00
C515   C     0.50500   0.62168   0.31463   0.00000  Uiso   1.00
C516   C     0.48259   0.51110   0.37642   0.00000  Uiso   1.00
C517   C     0.48394   0.47441   0.37098   0.00000  Uiso   1.00
C518   C     0.42356   0.46437   0.33960   0.00000  Uiso   1.00
H519   H     0.50590   0.52889   0.38988   0.00000  Uiso   1.00
H520   H     0.50794   0.46404   0.38066   0.00000  Uiso   1.00
H521   H     0.45643   0.42271   0.34752   0.00000  Uiso   1.00
H522   H     0.39824   0.51151   0.33498   0.00000  Uiso   1.00
H523   H     0.46104   0.57825   0.39517   0.00000  Uiso   1.00
C524   C     0.52929   0.66945   0.28288   0.00000  Uiso   1.00
C525   C     0.50840   0.66135   0.31434   0.00000  Uiso   1.00
H526   H     0.45193   0.62007   0.33267   0.00000  Uiso   1.00
H527   H     0.53173   0.61397   0.32301   0.00000  Uiso   1.00
H528   H     0.49518   0.60612   0.28629   0.00000  Uiso   1.00
H529   H     0.48823   0.62812   0.37012   0.00000  Uiso   1.00
H530   H     0.42484   0.57101   0.35820   0.00000  Uiso   1.00
H531   H     0.55684   0.66172   0.28670   0.00000  Uiso   1.00
H532   H     0.51509   0.65381   0.25618   0.00000  Uiso   1.00
N533   N     0.53089   0.70752   0.28304   0.00000  Uiso   1.00
N534   N     0.47682   0.57470   0.34080   0.00000  Uiso   1.00
C535   C     0.45474   0.45111   0.35222   0.00000  Uiso   1.00
loop_
_geom_bond_atom_site_label_1
_geom_bond_atom_site_label_2
_geom_bond_distance
_geom_bond_site_symmetry_2
_ccdc_geom_bond_type
Yb0    O3      2.094   .     S
Yb0    O4      2.110   .     S
Yb0    O5      2.165   .     S
Yb0    O7      2.104   .     S
Yb0    O8      2.102   .     S
Yb0    O12     2.184   .     S
Yb1    O6      2.135   .     S
Yb1    O9      2.093   .     S
Yb1    O10     2.104   .     S
Yb1    O13     2.173   .     S
Yb1    O14     2.095   .     S
Yb1    O16     2.102   .     S
C2     O14     1.289   .     A
C2     O16     1.292   .     A
C2     C480    1.462   .     S
O3     C11     1.288   .     A
O4     C11     1.293   .     A
O5     C15     1.268   .     A
O6     C15     1.262   .     A
O7     C17     1.293   .     A
O8     C17     1.288   .     A
O9     C18     1.292   .     A
O10    C18     1.289   .     A
C11    C426    1.471   .     S
O12    C19     1.278   .     A
O13    C19     1.280   .     A
C15    C404    1.460   .     S
C17    C290    1.471   .     S
C18    C100    1.476   .     S
C19    C312    1.468   .     S
Yb20   O23     2.106   .     S
Yb20   O24     2.120   .     S
Yb20   O25     2.190   .     S
Yb20   O27     2.103   .     S
Yb20   O28     2.112   .     S
Yb20   O32     2.167   .     S
Yb21   O26     2.162   .     S
Yb21   O29     2.124   .     S
Yb21   O30     2.093   .     S
Yb21   O33     2.182   .     S
Yb21   O34     2.095   .     S
Yb21   O36     2.109   .     S
C22    O34     1.290   .     A
C22    O36     1.293   .     A
C22    C138    1.479   .     S
O23    C31     1.288   .     A
O24    C31     1.293   .     A
O25    C35     1.277   .     A
O26    C35     1.266   .     A
O27    C37     1.288   .     A
O28    C37     1.290   .     A
O29    C38     1.294   .     A
O30    C38     1.288   .     A
C31    C214    1.478   .     S
O32    C39     1.273   .     A
O33    C39     1.279   .     A
C35    C252    1.464   .     S
C37    C464    1.473   .     S
C38    C502    1.482   .     S
C39    C84     1.477   .     S
Yb40   O43     2.092   .     S
Yb40   O44     2.116   .     S
Yb40   O45     2.158   .     S
Yb40   O47     2.099   .     S
Yb40   O48     2.104   .     S
Yb40   O52     2.163   .     S
Yb41   O46     2.173   .     S
Yb41   O49     2.112   .     S
Yb41   O50     2.089   .     S
Yb41   O53     2.179   .     S
Yb41   O54     2.094   .     S
Yb41   O56     2.105   .     S
C42    O54     1.290   .     A
C42    O56     1.293   .     A
C42    C160    1.477   .     S
O43    C51     1.287   .     A
O44    C51     1.291   .     A
O45    C55     1.274   .     A
O46    C55     1.274   .     A
O47    C57     1.293   .     A
O48    C57     1.290   .     A
O49    C58     1.293   .     A
O50    C58     1.290   .     A
C51    C198    1.462   .     S
O52    C59     1.275   .     A
O53    C59     1.274   .     A
C55    C236    1.490   .     S
C57    C388    1.476   .     S
C58    C366    1.477   .     S
C59    C442    1.470   .     S
Yb60   O63     2.182   .     S
Yb60   O64     2.155   .     S
Yb60   O65     2.155   .     S
Yb60   O67     2.106   .     S
Yb60   O68     2.110   .     S
Yb60   O72     2.231   .     S
Yb61   O66     2.173   .     S
Yb61   O69     2.102   .     S
Yb61   O70     2.104   .     S
Yb61   O73     2.165   .     S
Yb61   O74     2.108   .     S
Yb61   O76     2.091   .     S
C62    O74     1.295   .     A
C62    O76     1.290   .     A
C62    C176    1.479   .     S
O63    C71     1.267   .     A
O64    C71     1.260   .     A
O65    C75     1.272   .     A
O66    C75     1.276   .     A
O67    C77     1.286   .     A
O68    C77     1.286   .     A
O69    C78     1.291   .     A
O70    C78     1.293   .     A
C71    C518    1.467   .     S
O72    C79     1.287   .     A
O73    C79     1.269   .     A
C75    C122    1.484   .     S
C77    C328    1.462   .     S
C78    C350    1.480   .     S
C79    C274    1.471   .     S
C80    C81     1.402   .     A
C80    C85     1.403   .     A
C80    C86     1.495   .     S
C81    C82     1.394   .     A
C81    H87     1.083   1_554 S
C82    C83     1.395   .     A
C82    H88     1.082   .     S
C83    C84     1.400   .     A
C83    H89     1.067   .     S
C84    C85     1.403   .     A
C85    H90     1.085   .     S
C86    H91     1.112   .     S
C86    H92     1.115   .     S
C86    N115    1.461   .     S
H87    C81     1.083   1_556 S
C93    C94     1.401   .     A
C93    C95     1.497   .     S
C93    C98     1.403   .     A
C94    C100    1.403   .     A
C94    H104    1.084   .     S
C95    H105    1.113   .     S
C95    H112    1.114   .     S
C95    N116    1.460   .     S
C96    C97     1.521   .     S
C96    H108    1.113   .     S
C96    H111    1.114   .     S
C96    N116    1.459   .     S
C97    C107    1.521   .     S
C97    H110    1.112   .     S
C97    H109    1.113   1_556 S
C98    C99     1.397   .     A
C98    H101    1.084   1_556 S
C99    C117    1.399   .     A
C99    H102    1.083   1_556 S
C100   C117    1.407   .     A
H101   C98     1.084   1_554 S
H102   C99     1.083   1_554 S
H103   C117    1.083   .     S
C106   H113    1.113   .     S
C106   N115    1.456   .     S
C106   C107    1.518   1_554 S
C106   H114    1.111   1_554 S
C107   C106    1.518   1_556 S
H109   C97     1.113   1_554 S
H114   C106    1.111   1_556 S
C118   C119    1.401   .     A
C118   C123    1.404   .     A
C118   C124    1.503   .     S
C119   C120    1.396   .     A
C119   H125    1.083   .     S
C120   C121    1.398   .     A
C120   H126    1.082   .     S
C121   C122    1.406   .     A
C121   H127    1.078   .     S
C122   C123    1.409   .     A
C123   H128    1.083   .     S
C124   H129    1.113   .     S
C124   H130    1.112   .     S
C124   N153    1.462   .     S
C131   C132    1.407   .     A
C131   C133    1.504   .     S
C131   C136    1.404   .     A
C132   H142    1.083   .     S
C132   C138    1.407   1_545 A
C133   H143    1.113   .     S
C133   H150    1.112   .     S
C133   N154    1.466   .     S
C134   C135    1.525   .     S
C134   H146    1.114   .     S
C134   H149    1.114   .     S
C134   N154    1.464   .     S
C135   C145    1.525   .     S
C135   H147    1.112   .     S
C135   H148    1.112   .     S
C136   H139    1.083   .     S
C136   C137    1.395   1_545 A
C137   H140    1.083   .     S
C137   C155    1.395   .     A
C137   C136    1.395   1_565 A
C138   C155    1.406   .     A
C138   C132    1.407   1_565 A
H141   C155    1.083   .     S
C144   C145    1.520   .     S
C144   H151    1.112   .     S
C144   H152    1.112   .     S
C144   N153    1.460   .     S
C156   C157    1.405   .     A
C156   C161    1.407   .     A
C156   C162    1.510   .     S
C157   C158    1.398   .     A
C157   H163    1.083   .     S
C158   C159    1.397   .     A
C158   H164    1.082   .     S
C159   C160    1.404   .     A
C159   H165    1.084   .     S
C160   C161    1.408   .     A
C161   H166    1.084   .     S
C162   H167    1.114   .     S
C162   H168    1.112   .     S
C162   N191    1.473   .     S
C169   C170    1.408   .     A
C169   C171    1.514   .     S
C169   C174    1.409   .     A
C170   C176    1.406   .     A
C170   H180    1.084   .     S
C171   H181    1.113   .     S
C171   H188    1.111   .     S
C171   N192    1.470   .     S
C172   C173    1.528   .     S
C172   H184    1.112   .     S
C172   H187    1.114   .     S
C172   N192    1.467   .     S
C173   C183    1.533   .     S
C173   H185    1.113   .     S
C173   H186    1.111   .     S
C174   C175    1.396   .     A
C174   H177    1.082   .     S
C175   H178    1.083   .     S
C175   C193    1.395   .     A
C176   C193    1.406   .     A
H179   C193    1.084   .     S
C182   C183    1.529   .     S
C182   H189    1.113   .     S
C182   H190    1.110   .     S
C182   N191    1.466   .     S
C194   C195    1.407   .     A
C194   C199    1.405   .     A
C194   C200    1.507   .     S
C195   C196    1.397   .     A
C195   H201    1.081   .     S
C196   C197    1.395   .     A
C196   H202    1.082   .     S
C197   C198    1.401   .     A
C197   H203    1.084   .     S
C198   C199    1.401   .     A
C199   H204    1.084   .     S
C200   H205    1.113   .     S
C200   H206    1.110   .     S
C200   N229    1.467   .     S
C207   C209    1.513   .     S
C207   C212    1.409   .     A
C207   C208    1.409   1_556 A
C208   C214    1.407   .     A
C208   H218    1.084   .     S
C208   C207    1.409   1_554 A
C209   H219    1.114   .     S
C209   H226    1.111   .     S
C209   N230    1.468   .     S
C210   H222    1.112   .     S
C210   H225    1.114   .     S
C210   N230    1.466   .     S
C210   C211    1.525   1_565 S
C211   H223    1.112   .     S
C211   H224    1.112   .     S
C211   C210    1.525   1_545 S
C211   C221    1.525   1_545 S
C212   H215    1.082   .     S
C212   C213    1.395   1_556 A
C213   H216    1.083   .     S
C213   C231    1.395   .     A
C213   C212    1.395   1_554 A
C214   C231    1.405   .     A
H217   C231    1.084   .     S
C220   H227    1.110   .     S
C220   H228    1.112   .     S
C220   N229    1.465   .     S
C220   C221    1.523   1_545 S
C221   C211    1.525   1_565 S
C221   C220    1.523   1_565 S
C232   C233    1.403   .     A
C232   C238    1.504   .     S
C232   C237    1.407   1_565 A
C233   C234    1.393   .     A
C233   H239    1.083   .     S
C234   H240    1.083   .     S
C234   C235    1.395   1_565 A
C235   C236    1.404   .     A
C235   H241    1.067   .     S
C235   C234    1.395   1_545 A
C236   C237    1.412   .     A
C237   H242    1.084   .     S
C237   C232    1.407   1_545 A
C238   H243    1.114   .     S
C238   H244    1.113   .     S
C238   N267    1.464   .     S
C245   C246    1.405   .     A
C245   C247    1.503   1_565 S
C245   C250    1.404   1_565 A
C246   C252    1.402   .     A
C246   H256    1.084   .     S
C247   H257    1.112   .     S
C247   C245    1.503   1_545 S
C247   H264    1.113   1_545 S
C247   N268    1.463   1_545 S
C248   C249    1.524   .     S
C248   H260    1.113   .     S
C248   N268    1.464   .     S
C248   H263    1.113   1_565 S
C249   C259    1.528   .     S
C249   H261    1.112   .     S
C249   H262    1.112   .     S
C250   C251    1.398   .     A
C250   H253    1.083   .     S
C250   C245    1.404   1_545 A
C251   H254    1.083   .     S
C251   C269    1.398   1_545 A
C252   C269    1.400   .     A
H255   C269    1.083   .     S
C258   C259    1.522   .     S
C258   H265    1.113   .     S
C258   H266    1.113   .     S
C258   N267    1.464   .     S
H263   C248    1.113   1_545 S
H264   C247    1.113   1_565 S
N268   C247    1.463   1_565 S
C269   C251    1.398   1_565 A
C270   C271    1.404   .     A
C270   C275    1.406   .     A
C270   C276    1.502   .     S
C271   C272    1.397   .     A
C271   H277    1.083   .     S
C272   C273    1.397   .     A
C272   H278    1.083   .     S
C273   C274    1.404   .     A
C273   H279    1.084   .     S
C274   C275    1.404   .     A
C275   H280    1.084   .     S
C276   H281    1.113   .     S
C276   H282    1.112   .     S
C276   N305    1.465   .     S
C283   C284    1.405   .     A
C283   C285    1.505   .     S
C283   C288    1.404   .     A
C284   C290    1.407   .     A
C284   H294    1.084   .     S
C285   H295    1.112   .     S
C285   H302    1.114   .     S
C285   N306    1.463   .     S
C286   C287    1.525   .     S
C286   H298    1.113   .     S
C286   H301    1.113   .     S
C286   N306    1.463   .     S
C287   C297    1.527   .     S
C287   H299    1.112   .     S
C287   H300    1.112   .     S
C288   C289    1.398   .     A
C288   H291    1.084   .     S
C289   H292    1.082   .     S
C289   C307    1.398   .     A
C290   C307    1.402   .     A
H293   C307    1.084   .     S
C296   C297    1.524   .     S
C296   H303    1.113   .     S
C296   H304    1.113   .     S
C296   N305    1.462   .     S
C308   C309    1.405   .     A
C308   C313    1.406   .     A
C308   C314    1.502   .     S
C309   C310    1.396   .     A
C309   H315    1.083   .     S
C310   C311    1.395   .     A
C310   H316    1.082   .     S
C311   C312    1.400   .     A
C311   H317    1.077   .     S
C312   C313    1.402   .     A
C313   H318    1.084   .     S
C314   H319    1.112   .     S
C314   H320    1.114   .     S
C314   N343    1.463   1_556 S
C321   C322    1.405   .     A
C321   C323    1.500   .     S
C321   C326    1.405   .     A
C322   C328    1.401   .     A
C322   H332    1.084   .     S
C323   H333    1.114   .     S
C323   H340    1.113   .     S
C323   N344    1.463   .     S
C324   C325    1.525   .     S
C324   H336    1.114   .     S
C324   H339    1.113   .     S
C324   N344    1.462   .     S
C325   C335    1.524   .     S
C325   H337    1.112   .     S
C325   H338    1.112   .     S
C326   C327    1.398   .     A
C326   H329    1.083   .     S
C327   H330    1.083   .     S
C327   C345    1.397   .     A
C328   C345    1.401   .     A
H331   C345    1.084   .     S
C334   C335    1.521   .     S
C334   H341    1.112   .     S
C334   H342    1.113   .     S
C334   N343    1.460   .     S
N343   C314    1.463   1_554 S
C346   C347    1.406   .     A
C346   C351    1.407   .     A
C346   C352    1.511   .     S
C347   C348    1.396   .     A
C347   H353    1.083   .     S
C348   C349    1.396   .     A
C348   H354    1.083   .     S
C349   C350    1.405   .     A
C349   H355    1.084   .     S
C350   C351    1.408   .     A
C351   H356    1.083   .     S
C352   H357    1.113   .     S
C352   H358    1.112   .     S
C352   N381    1.471   .     S
C359   C361    1.507   .     S
C359   C364    1.404   .     A
C359   C360    1.410   1_455 A
C360   C366    1.407   .     A
C360   H370    1.084   .     S
C360   C359    1.410   1_655 A
C361   H371    1.114   .     S
C361   H378    1.111   .     S
C361   N382    1.472   .     S
C362   C363    1.530   .     S
C362   H374    1.114   .     S
C362   H377    1.112   .     S
C362   N382    1.468   .     S
C363   C373    1.532   .     S
C363   H375    1.111   .     S
C363   H376    1.112   .     S
C364   H367    1.083   .     S
C364   C365    1.395   1_455 A
C365   H368    1.081   .     S
C365   C383    1.393   .     A
C365   C364    1.395   1_655 A
C366   C383    1.404   .     A
H369   C383    1.083   .     S
C372   C373    1.527   .     S
C372   H379    1.112   .     S
C372   H380    1.113   .     S
C372   N381    1.467   .     S
C384   C385    1.403   .     A
C384   C389    1.403   .     A
C384   C390    1.499   .     S
C385   C386    1.396   .     A
C385   H391    1.083   .     S
C386   H392    1.083   .     S
C386   C387    1.398   1_565 A
C387   C388    1.407   .     A
C387   H393    1.083   .     S
C387   C386    1.398   1_545 A
C388   C389    1.405   1_545 A
C389   H394    1.083   .     S
C389   C388    1.405   1_565 A
C390   H395    1.114   .     S
C390   N419    1.464   .     S
C390   H396    1.113   1_655 S
H396   C390    1.113   1_455 S
C397   C398    1.402   .     A
C397   C399    1.500   .     S
C397   C402    1.406   .     A
C398   C404    1.398   .     A
C398   H408    1.083   .     S
C399   H409    1.112   .     S
C399   H416    1.113   .     S
C399   N420    1.460   .     S
C400   C401    1.522   .     S
C400   H412    1.112   .     S
C400   H415    1.113   .     S
C400   N420    1.460   .     S
C401   C411    1.525   .     S
C401   H413    1.112   .     S
C401   H414    1.112   .     S
C402   C403    1.398   .     A
C402   H405    1.084   .     S
C403   H406    1.083   .     S
C403   C421    1.397   .     A
C404   C421    1.401   .     A
H407   C421    1.083   .     S
C410   C411    1.523   .     S
C410   H417    1.113   .     S
C410   H418    1.112   1_455 S
C410   N419    1.460   1_455 S
H418   C410    1.112   1_655 S
N419   C410    1.460   1_655 S
C422   C423    1.404   .     A
C422   C427    1.406   .     A
C422   C428    1.503   .     S
C423   C424    1.397   .     A
C423   H429    1.083   .     S
C424   C425    1.396   .     A
C424   H430    1.083   .     S
C425   C426    1.404   .     A
C425   H431    1.083   .     S
C426   C427    1.404   .     A
C427   H432    1.084   .     S
C428   H433    1.112   .     S
C428   H434    1.114   .     S
C428   N457    1.466   .     S
C435   C436    1.407   .     A
C435   C437    1.508   .     S
C435   C440    1.404   .     A
C436   C442    1.408   .     A
C436   H446    1.084   .     S
C437   H447    1.113   .     S
C437   H454    1.114   .     S
C437   N458    1.464   .     S
C438   H450    1.113   .     S
C438   H453    1.115   .     S
C438   N458    1.466   .     S
C438   C439    1.528   1_655 S
C439   H451    1.112   .     S
C439   H452    1.108   .     S
C439   C438    1.528   1_455 S
C439   C449    1.526   1_455 S
C440   C441    1.397   .     A
C440   H443    1.081   .     S
C441   H444    1.082   .     S
C441   C459    1.396   .     A
C442   C459    1.401   .     A
H445   C459    1.082   .     S
C448   H455    1.113   .     S
C448   H456    1.113   .     S
C448   N457    1.461   .     S
C448   C449    1.525   1_455 S
C449   C439    1.526   1_655 S
C449   C448    1.525   1_655 S
C460   C461    1.404   .     A
C460   C465    1.404   .     A
C460   C466    1.499   .     S
C461   C462    1.396   .     A
C461   H467    1.084   .     S
C462   C463    1.398   .     A
C462   H468    1.084   .     S
C463   C464    1.406   .     A
C463   H469    1.083   .     S
C464   C465    1.404   .     A
C465   H470    1.085   .     S
C466   H471    1.113   .     S
C466   H472    1.114   .     S
C466   N495    1.461   .     S
C473   C474    1.404   .     A
C473   C478    1.406   .     A
C473   C475    1.501   1_455 S
C474   C480    1.400   .     A
C474   H484    1.084   .     S
C475   H485    1.113   .     S
C475   H492    1.113   .     S
C475   N496    1.462   .     S
C475   C473    1.501   1_655 S
C476   H491    1.114   .     S
C476   N496    1.461   .     S
C476   C477    1.523   1_556 S
C476   H488    1.113   1_556 S
C477   C487    1.521   .     S
C477   H490    1.112   .     S
C477   C476    1.523   1_554 S
C477   H489    1.112   1_554 S
C478   C479    1.397   .     A
C478   H481    1.084   1_455 S
C479   H482    1.083   .     S
C479   C497    1.397   .     A
C480   C497    1.402   .     A
H481   C478    1.084   1_655 S
H483   C497    1.082   .     S
C486   C487    1.520   .     S
C486   H493    1.113   .     S
C486   H494    1.112   .     S
C486   N495    1.457   .     S
H488   C476    1.113   1_554 S
H489   C477    1.112   1_556 S
C498   C499    1.404   .     A
C498   C503    1.411   .     A
C498   C504    1.505   .     S
C499   C500    1.393   .     A
C499   H505    1.084   .     S
C500   C501    1.394   .     A
C500   H506    1.083   .     S
C501   C502    1.408   .     A
C501   H507    1.083   .     S
C502   C503    1.410   .     A
C503   H508    1.084   .     S
C504   H509    1.114   .     S
C504   H510    1.111   .     S
C504   N533    1.469   .     S
C511   C512    1.407   .     A
C511   C513    1.501   .     S
C511   C516    1.405   .     A
C512   C518    1.403   .     A
C512   H522    1.084   .     S
C513   H523    1.112   .     S
C513   H530    1.113   .     S
C513   N534    1.462   .     S
C514   C515    1.524   .     S
C514   H526    1.114   .     S
C514   H529    1.113   .     S
C514   N534    1.461   .     S
C515   C525    1.526   .     S
C515   H527    1.112   .     S
C515   H528    1.113   .     S
C516   C517    1.396   .     A
C516   H519    1.084   .     S
C517   H520    1.083   .     S
C517   C535    1.396   .     A
C518   C535    1.403   .     A
H521   C535    1.083   .     S
C524   C525    1.523   .     S
C524   H531    1.112   .     S
C524   H532    1.113   .     S
C524   N533    1.463   .     S
