data_lcy+N139+E225
_audit_creation_date              2025-01-21
_audit_creation_method            'Materials Studio'
_symmetry_space_group_name_H-M    'P1'
_symmetry_Int_Tables_number       1
_symmetry_cell_setting            triclinic
loop_
_symmetry_equiv_pos_as_xyz
  x,y,z
_cell_length_a                    33.5439
_cell_length_b                    30.1728
_cell_length_c                    32.8747
_cell_angle_alpha                 83.4905
_cell_angle_beta                  90.1222
_cell_angle_gamma                 84.5427
loop_
_atom_site_label
_atom_site_type_symbol
_atom_site_fract_x
_atom_site_fract_y
_atom_site_fract_z
_atom_site_U_iso_or_equiv
_atom_site_adp_type
_atom_site_occupancy
C0     C     0.02722   0.53814   0.81439   0.00000  Uiso   1.00
Sm1    Sm    0.11587   0.69267   0.90375   0.00000  Uiso   1.00
Sm2    Sm    0.09534   0.57441   0.81977   0.00000  Uiso   1.00
C3     C     0.15386   0.59425   0.88663   0.00000  Uiso   1.00
C4     C     0.14557   0.56853   0.75873   0.00000  Uiso   1.00
O5     O     0.16716   0.72825   0.88011   0.00000  Uiso   1.00
O6     O     0.17099   0.69392   0.94173   0.00000  Uiso   1.00
O7     O     0.06773   0.63220   0.85213   0.00000  Uiso   1.00
O8     O     0.06928   0.70472   0.85325   0.00000  Uiso   1.00
O9     O     0.06769   0.67405   0.94714   0.00000  Uiso   1.00
O10    O     0.08280   0.74265   0.93916   0.00000  Uiso   1.00
O11    O     0.05041   0.53006   0.84589   0.00000  Uiso   1.00
O12    O     0.03934   0.56577   0.78550   0.00000  Uiso   1.00
O13    O     0.13969   0.63327   0.87220   0.00000  Uiso   1.00
O14    O     0.14561   0.56193   0.86742   0.00000  Uiso   1.00
O15    O     0.13465   0.60564   0.77284   0.00000  Uiso   1.00
O16    O     0.13027   0.53414   0.77669   0.00000  Uiso   1.00
C17    C     0.18815   0.71729   0.91292   0.00000  Uiso   1.00
C18    C     0.05878   0.67217   0.83542   0.00000  Uiso   1.00
C19    C     0.05949   0.71450   0.95540   0.00000  Uiso   1.00
C20    C     0.59778   0.79821   0.18803   0.00000  Uiso   1.00
Sm21   Sm    0.68961   0.91317   0.12543   0.00000  Uiso   1.00
Sm22   Sm    0.59252   0.85320   0.11746   0.00000  Uiso   1.00
C23    C     0.66359   0.82119   0.09056   0.00000  Uiso   1.00
C24    C     0.55280   0.81760   0.06094   0.00000  Uiso   1.00
O25    O     0.68722   0.94865   0.06234   0.00000  Uiso   1.00
O26    O     0.73920   0.90284   0.08120   0.00000  Uiso   1.00
O27    O     0.57451   0.91219   0.15071   0.00000  Uiso   1.00
O28    O     0.63344   0.94297   0.15597   0.00000  Uiso   1.00
O29    O     0.71485   0.88804   0.18727   0.00000  Uiso   1.00
O30    O     0.72560   0.95469   0.16015   0.00000  Uiso   1.00
O31    O     0.62629   0.81998   0.17443   0.00000  Uiso   1.00
O32    O     0.56672   0.80551   0.16549   0.00000  Uiso   1.00
O33    O     0.65759   0.85895   0.10424   0.00000  Uiso   1.00
O34    O     0.63178   0.80215   0.08653   0.00000  Uiso   1.00
O35    O     0.54301   0.85643   0.07163   0.00000  Uiso   1.00
O36    O     0.58539   0.79804   0.07767   0.00000  Uiso   1.00
C37    C     0.72121   0.92996   0.05254   0.00000  Uiso   1.00
C38    C     0.59582   0.94124   0.16302   0.00000  Uiso   1.00
C39    C     0.72901   0.92528   0.19176   0.00000  Uiso   1.00
C40    C     0.86246   0.04726   0.55507   0.00000  Uiso   1.00
Sm41   Sm    0.94511   0.11209   0.67316   0.00000  Uiso   1.00
Sm42   Sm    0.91074   0.09555   0.59493   0.00000  Uiso   1.00
C43    C     0.97091   0.16186   0.58683   0.00000  Uiso   1.00
C44    C     0.86006   0.16795   0.56149   0.00000  Uiso   1.00
O45    O     0.89103   0.15620   0.69228   0.00000  Uiso   1.00
O46    O     0.94791   0.16676   0.71439   0.00000  Uiso   1.00
O47    O     0.86040   0.07033   0.63278   0.00000  Uiso   1.00
O48    O     0.87593   0.12009   0.67389   0.00000  Uiso   1.00
O49    O     0.94088   0.04519   0.65190   0.00000  Uiso   1.00
O50    O     0.93503   0.05211   0.71652   0.00000  Uiso   1.00
O51    O     0.88829   0.07107   0.53822   0.00000  Uiso   1.00
O52    O     0.86004   0.04957   0.59362   0.00000  Uiso   1.00
O53    O     0.95744   0.16691   0.62247   0.00000  Uiso   1.00
O54    O     0.96208   0.12915   0.56894   0.00000  Uiso   1.00
O55    O     0.87303   0.16257   0.59741   0.00000  Uiso   1.00
O56    O     0.87394   0.13673   0.54216   0.00000  Uiso   1.00
C57    C     0.91117   0.18040   0.71218   0.00000  Uiso   1.00
C58    C     0.85359   0.08989   0.66498   0.00000  Uiso   1.00
C59    C     0.93497   0.02637   0.68804   0.00000  Uiso   1.00
C60    C     0.33484   0.44427   0.27796   0.00000  Uiso   1.00
Sm61   Sm    0.39867   0.33604   0.44050   0.00000  Uiso   1.00
Sm62   Sm    0.37915   0.41619   0.34585   0.00000  Uiso   1.00
C63    C     0.43034   0.32488   0.34098   0.00000  Uiso   1.00
C64    C     0.44159   0.46604   0.33495   0.00000  Uiso   1.00
O65    O     0.44318   0.28722   0.47668   0.00000  Uiso   1.00
O66    O     0.45679   0.35575   0.46071   0.00000  Uiso   1.00
O67    O     0.34517   0.46451   0.38350   0.00000  Uiso   1.00
O68    O     0.36726   0.39905   0.41014   0.00000  Uiso   1.00
O69    O     0.34168   0.30399   0.44523   0.00000  Uiso   1.00
O70    O     0.35946   0.33931   0.49502   0.00000  Uiso   1.00
O71    O     0.32551   0.41392   0.30515   0.00000  Uiso   1.00
O72    O     0.36760   0.45974   0.28566   0.00000  Uiso   1.00
O73    O     0.42666   0.31607   0.38019   0.00000  Uiso   1.00
O74    O     0.41401   0.36025   0.31970   0.00000  Uiso   1.00
O75    O     0.43764   0.43847   0.36639   0.00000  Uiso   1.00
O76    O     0.41255   0.46873   0.30967   0.00000  Uiso   1.00
C77    C     0.46854   0.31643   0.47798   0.00000  Uiso   1.00
C78    C     0.35126   0.43768   0.41605   0.00000  Uiso   1.00
C79    C     0.33304   0.31735   0.48004   0.00000  Uiso   1.00
C80    C     0.52686   0.79649   1.03394   0.00000  Uiso   1.00
C81    C     0.49074   0.82008   1.01904   0.00000  Uiso   1.00
C82    C     0.46276   0.79888   0.99878   0.00000  Uiso   1.00
C83    C     0.47075   0.75365   0.99174   0.00000  Uiso   1.00
C84    C     0.50718   0.73036   0.00601   0.00000  Uiso   1.00
C85    C     0.53515   0.75154   0.02679   0.00000  Uiso   1.00
C86    C     0.41262   0.75489   0.94896   0.00000  Uiso   1.00
H87    H     0.24085   0.69806   0.97806   0.00000  Uiso   1.00
H88    H     0.30934   0.71898   0.98157   0.00000  Uiso   1.00
H89    H     0.29751   0.78422   0.85784   0.00000  Uiso   1.00
H90    H     0.22853   0.76495   0.85478   0.00000  Uiso   1.00
H91    H     0.37245   0.70594   0.95801   0.00000  Uiso   1.00
O92    O     0.34810   0.76567   0.91891   0.00000  Uiso   1.00
O93    O     0.44216   0.72965   0.97450   0.00000  Uiso   1.00
C94    C     0.22944   0.72980   0.91611   0.00000  Uiso   1.00
C95    C     0.25296   0.71678   0.95162   0.00000  Uiso   1.00
C96    C     0.29245   0.72808   0.95331   0.00000  Uiso   1.00
C97    C     0.30926   0.75176   0.91901   0.00000  Uiso   1.00
C98    C     0.28538   0.76524   0.88411   0.00000  Uiso   1.00
C99    C     0.24600   0.75432   0.88251   0.00000  Uiso   1.00
C100   C     0.37749   0.73905   0.94347   0.00000  Uiso   1.00
H101   H     0.43431   0.81763   0.99035   0.00000  Uiso   1.00
H102   H     0.51343   0.69529   0.00186   0.00000  Uiso   1.00
H103   H     0.48326   0.85458   1.02457   0.00000  Uiso   1.00
H104   H     0.41762   0.78774   0.93365   0.00000  Uiso   1.00
H105   H     0.56253   0.73234   0.03848   0.00000  Uiso   1.00
C106   C     0.45475   0.29150   0.31940   0.00000  Uiso   1.00
C107   C     0.46516   0.30142   0.27815   0.00000  Uiso   1.00
C108   C     0.48693   0.26911   0.25763   0.00000  Uiso   1.00
C109   C     0.49795   0.22621   0.27750   0.00000  Uiso   1.00
C110   C     0.48935   0.21686   0.31930   0.00000  Uiso   1.00
C111   C     0.46774   0.24909   0.33993   0.00000  Uiso   1.00
C112   C     0.50793   0.15045   0.26333   0.00000  Uiso   1.00
H113   H     0.62918   1.00870   0.19618   0.00000  Uiso   1.00
H114   H     0.59578   0.06511   0.23512   0.00000  Uiso   1.00
H115   H     0.48411   0.00739   0.22450   0.00000  Uiso   1.00
H116   H     0.51730   0.95020   0.18575   0.00000  Uiso   1.00
H117   H     0.54996   0.12662   0.22251   0.00000  Uiso   1.00
O118   O     0.51572   0.07422   0.25211   0.00000  Uiso   1.00
O119   O     0.51854   0.19445   0.25515   0.00000  Uiso   1.00
C120   C     0.57576   0.97539   0.18704   0.00000  Uiso   1.00
C121   C     0.59738   1.00823   0.20162   0.00000  Uiso   1.00
C122   C     0.57817   0.04089   0.22359   0.00000  Uiso   1.00
C123   C     0.53675   0.04178   0.23085   0.00000  Uiso   1.00
C124   C     0.51569   0.00795   0.21798   0.00000  Uiso   1.00
C125   C     0.53476   0.97536   0.19591   0.00000  Uiso   1.00
C126   C     0.52695   0.11801   0.24447   0.00000  Uiso   1.00
H127   H     0.49454   0.27711   0.22584   0.00000  Uiso   1.00
H128   H     0.49932   0.18472   0.33601   0.00000  Uiso   1.00
H129   H     0.45641   0.33405   0.26165   0.00000  Uiso   1.00
H130   H     0.48345   0.14235   0.28366   0.00000  Uiso   1.00
H131   H     0.46085   0.24054   0.37186   0.00000  Uiso   1.00
C132   C     0.83015   0.20460   0.54526   0.00000  Uiso   1.00
C133   C     0.81069   0.20273   0.50775   0.00000  Uiso   1.00
C134   C     0.77803   0.23352   0.49524   0.00000  Uiso   1.00
C135   C     0.76413   0.26610   0.52023   0.00000  Uiso   1.00
C136   C     0.78490   0.26983   0.55657   0.00000  Uiso   1.00
C137   C     0.81783   0.23927   0.56902   0.00000  Uiso   1.00
C138   C     0.69623   0.27902   0.53399   0.00000  Uiso   1.00
H139   H     0.49961   0.23837   0.52252   0.00000  Uiso   1.00
H140   H     0.56863   0.22040   0.54893   0.00000  Uiso   1.00
H141   H     0.59633   0.35342   0.50315   0.00000  Uiso   1.00
H142   H     0.52838   0.37108   0.47608   0.00000  Uiso   1.00
H143   H     0.65384   0.31017   0.49094   0.00000  Uiso   1.00
O144   O     0.62702   0.27273   0.54297   0.00000  Uiso   1.00
O145   O     0.72829   0.29250   0.50975   0.00000  Uiso   1.00
C146   C     0.50897   0.30580   0.49652   0.00000  Uiso   1.00
C147   C     0.52067   0.26350   0.51775   0.00000  Uiso   1.00
C148   C     0.55993   0.25323   0.53285   0.00000  Uiso   1.00
C149   C     0.58817   0.28464   0.52668   0.00000  Uiso   1.00
C150   C     0.57593   0.32763   0.50681   0.00000  Uiso   1.00
C151   C     0.53679   0.33794   0.49177   0.00000  Uiso   1.00
C152   C     0.65872   0.29025   0.52054   0.00000  Uiso   1.00
H153   H     0.76218   0.23063   0.46710   0.00000  Uiso   1.00
H154   H     0.77466   0.29537   0.57578   0.00000  Uiso   1.00
H155   H     0.81952   0.17621   0.48906   0.00000  Uiso   1.00
H156   H     0.70139   0.25716   0.56264   0.00000  Uiso   1.00
H157   H     0.83267   0.24173   0.59790   0.00000  Uiso   1.00
C158   C     0.82256   0.07545   0.69422   0.00000  Uiso   1.00
C159   C     0.79894   0.04111   0.68660   0.00000  Uiso   1.00
C160   C     0.77634   0.02075   0.71797   0.00000  Uiso   1.00
C161   C     0.77750   0.03387   0.75750   0.00000  Uiso   1.00
C162   C     0.79853   0.07049   0.76426   0.00000  Uiso   1.00
C163   C     0.82091   0.09096   0.73306   0.00000  Uiso   1.00
C164   C     0.78087   0.99783   0.82527   0.00000  Uiso   1.00
H165   H     0.68904   0.98784  -0.01129   0.00000  Uiso   1.00
H166   H     0.71700   0.00437   0.92094   0.00000  Uiso   1.00
H167   H     0.81914   0.90922   0.95469   0.00000  Uiso   1.00
H168   H     0.79131   0.89294   1.02322   0.00000  Uiso   1.00
H169   H     0.73249  -0.02354   0.85976   0.00000  Uiso   1.00
O170   O     0.78876   0.96686   0.89448   0.00000  Uiso   1.00
O171   O     0.75759   0.01028   0.78938   0.00000  Uiso   1.00
C172   C     0.73794   0.93898   1.01120   0.00000  Uiso   1.00
C173   C     0.71725   0.97003   0.98153   0.00000  Uiso   1.00
C174   C     0.73306   0.97909   0.94246   0.00000  Uiso   1.00
C175   C     0.76984   0.95673   0.93211   0.00000  Uiso   1.00
C176   C     0.79049   0.92605   0.96189   0.00000  Uiso   1.00
C177   C     0.77468   0.91696   1.00096   0.00000  Uiso   1.00
C178   C     0.76430   0.98064   0.85968   0.00000  Uiso   1.00
H179   H     0.75946   0.99329   0.71207   0.00000  Uiso   1.00
H180   H     0.79859   0.08229   0.79417   0.00000  Uiso   1.00
H181   H     0.79940   0.02855   0.65698   0.00000  Uiso   1.00
H182   H     0.81287   1.00139   0.82545   0.00000  Uiso   1.00
H183   H     0.83861   0.11729   0.74019   0.00000  Uiso   1.00
C184   C     0.83806   0.02124   0.53075   0.00000  Uiso   1.00
C185   C     0.81464   0.98816   0.54866   0.00000  Uiso   1.00
C186   C     0.79390   0.96285   0.52373   0.00000  Uiso   1.00
C187   C     0.79520   0.97129   0.48086   0.00000  Uiso   1.00
C188   C     0.81907   0.00414   0.46330   0.00000  Uiso   1.00
C189   C     0.84000   0.02873   0.48789   0.00000  Uiso   1.00
C190   C     0.75874   0.96846   0.41995   0.00000  Uiso   1.00
H191   H     0.75353   1.00408   0.21007   0.00000  Uiso   1.00
H192   H     0.76196   1.02665   0.27845   0.00000  Uiso   1.00
H193   H     0.74441   0.89280   0.33208   0.00000  Uiso   1.00
H194   H     0.73556   0.87036   0.26400   0.00000  Uiso   1.00
H195   H     0.77733   0.91777   0.38371   0.00000  Uiso   1.00
O196   O     0.75187   0.97955   0.34830   0.00000  Uiso   1.00
O197   O     0.77525   0.94478   0.45632   0.00000  Uiso   1.00
C198   C     0.74387   0.93545   0.23171   0.00000  Uiso   1.00
C199   C     0.75280   0.97910   0.23639   0.00000  Uiso   1.00
C200   C     0.75750   0.99210   0.27541   0.00000  Uiso   1.00
C201   C     0.75411   0.96183   0.31050   0.00000  Uiso   1.00
C202   C     0.74792   0.91709   0.30584   0.00000  Uiso   1.00
C203   C     0.74284   0.90412   0.26670   0.00000  Uiso   1.00
C204   C     0.76256   0.95128   0.38433   0.00000  Uiso   1.00
H205   H     0.77665   0.93674   0.53771   0.00000  Uiso   1.00
H206   H     0.82214   0.01026   0.43042   0.00000  Uiso   1.00
H207   H     0.81307   0.98124   0.58165   0.00000  Uiso   1.00
H208   H     0.74577   1.00293   0.41994   0.00000  Uiso   1.00
H209   H     0.85826   0.05347   0.47313   0.00000  Uiso   1.00
C210   C     0.34277   0.45099   0.45694   0.00000  Uiso   1.00
C211   C     0.30794   0.47846   0.46384   0.00000  Uiso   1.00
C212   C     0.29918   0.48933   0.50327   0.00000  Uiso   1.00
C213   C     0.32585   0.47381   0.53625   0.00000  Uiso   1.00
C214   C     0.36060   0.44651   0.52895   0.00000  Uiso   1.00
C215   C     0.36921   0.43555   0.48959   0.00000  Uiso   1.00
C216   C     0.29396   0.52119   0.58263   0.00000  Uiso   1.00
H217   H     0.16749   0.49653   0.71723   0.00000  Uiso   1.00
H218   H     0.21191   0.49421   0.65841   0.00000  Uiso   1.00
H219   H     0.23150   0.63258   0.66354   0.00000  Uiso   1.00
H220   H     0.18645   0.63545   0.72198   0.00000  Uiso   1.00
H221   H     0.27982   0.49743   0.64257   0.00000  Uiso   1.00
O222   O     0.25108   0.56429   0.62305   0.00000  Uiso   1.00
O223   O     0.31758   0.48149   0.57695   0.00000  Uiso   1.00
C224   C     0.17354   0.56613   0.72419   0.00000  Uiso   1.00
C225   C     0.18157   0.52633   0.70604   0.00000  Uiso   1.00
C226   C     0.20740   0.52487   0.67270   0.00000  Uiso   1.00
C227   C     0.22625   0.56312   0.65749   0.00000  Uiso   1.00
C228   C     0.21779   0.60276   0.67538   0.00000  Uiso   1.00
C229   C     0.19196   0.60431   0.70856   0.00000  Uiso   1.00
C230   C     0.27549   0.52492   0.61808   0.00000  Uiso   1.00
H231   H     0.27110   0.50870   0.50798   0.00000  Uiso   1.00
H232   H     0.38100   0.43349   0.55395   0.00000  Uiso   1.00
H233   H     0.28688   0.49026   0.43904   0.00000  Uiso   1.00
H234   H     0.29017   0.54916   0.55853   0.00000  Uiso   1.00
H235   H     0.39648   0.41482   0.48458   0.00000  Uiso   1.00
C236   C     0.17704   0.58537   0.92518   0.00000  Uiso   1.00
C237   C     0.16535   0.55393   0.95648   0.00000  Uiso   1.00
C238   C     0.18822   0.54354  -0.00754   0.00000  Uiso   1.00
C239   C     0.22334   0.56465  -0.00221   0.00000  Uiso   1.00
C240   C     0.23564   0.59480   0.96573   0.00000  Uiso   1.00
C241   C     0.21273   0.60514   0.92968   0.00000  Uiso   1.00
C242   C     0.23033   0.54084   0.06981   0.00000  Uiso   1.00
H243   H     0.34936   0.50920   0.21679   0.00000  Uiso   1.00
H244   H     0.30644   0.53845   0.15793   0.00000  Uiso   1.00
H245   H     0.22066   0.44526   0.19740   0.00000  Uiso   1.00
H246   H     0.26320   0.41668   0.25733   0.00000  Uiso   1.00
H247   H     0.28507   0.51588   0.09759   0.00000  Uiso   1.00
O248   O     0.23489   0.50852   0.13903   0.00000  Uiso   1.00
O249   O     0.24858   0.55376   0.03245   0.00000  Uiso   1.00
C250   C     0.30973   0.46047   0.24139   0.00000  Uiso   1.00
C251   C     0.32152   0.49467   0.21270   0.00000  Uiso   1.00
C252   C     0.29718   0.51098   0.17869   0.00000  Uiso   1.00
C253   C     0.26089   0.49259   0.17224   0.00000  Uiso   1.00
C254   C     0.24889   0.45905   0.20134   0.00000  Uiso   1.00
C255   C     0.27316   0.44282   0.23546   0.00000  Uiso   1.00
C256   C     0.25296   0.52203   0.10171   0.00000  Uiso   1.00
H257   H     0.17892   0.51821   0.01549   0.00000  Uiso   1.00
H258   H     0.26326   0.61013  -0.03131   0.00000  Uiso   1.00
H259   H     0.13862   0.53716   0.95288   0.00000  Uiso   1.00
H260   H     0.19815   0.54677   0.07367   0.00000  Uiso   1.00
H261   H     0.22330   0.62780   0.90498   0.00000  Uiso   1.00
C262   C     0.29475   0.30964   0.50043   0.00000  Uiso   1.00
C263   C     0.26654   0.28663   0.48174   0.00000  Uiso   1.00
C264   C     0.22932   0.28140   0.49954   0.00000  Uiso   1.00
C265   C     0.21919   0.29993   0.53606   0.00000  Uiso   1.00
C266   C     0.24785   0.32147   0.55538   0.00000  Uiso   1.00
C267   C     0.28521   0.32673   0.53758   0.00000  Uiso   1.00
C268   C     0.14917   0.29511   0.52914   0.00000  Uiso   1.00
H269   H     0.99869   0.23261   0.61870   0.00000  Uiso   1.00
H270   H     0.04777   0.28106   0.58884   0.00000  Uiso   1.00
H271   H     1.05093   0.21368   0.48005   0.00000  Uiso   1.00
H272   H     1.00166   0.16458   0.50975   0.00000  Uiso   1.00
H273   H     0.11666   0.26171   0.57487   0.00000  Uiso   1.00
O274   O     0.08465   0.27427   0.51620   0.00000  Uiso   1.00
O275   O     0.18230   0.29487   0.55534   0.00000  Uiso   1.00
C276   C     0.99692   0.19429   0.56683   0.00000  Uiso   1.00
C277   C     1.00968   0.22814   0.58833   0.00000  Uiso   1.00
C278   C     0.03793   0.25564   0.57148   0.00000  Uiso   1.00
C279   C     0.05410   0.24954   0.53286   0.00000  Uiso   1.00
C280   C     1.03938   0.21793   0.51023   0.00000  Uiso   1.00
C281   C     1.01132   0.19008   0.52719   0.00000  Uiso   1.00
C282   C     0.11663   0.27686   0.54319   0.00000  Uiso   1.00
H283   H     0.20857   0.26267   0.48485   0.00000  Uiso   1.00
H284   H     0.24086   0.33487   0.58401   0.00000  Uiso   1.00
H285   H     0.27315   0.27281   0.45323   0.00000  Uiso   1.00
H286   H     0.14988   0.30907   0.49716   0.00000  Uiso   1.00
H287   H     0.30647   0.34444   0.55272   0.00000  Uiso   1.00
C288   C     0.92698  -0.02087   0.69593   0.00000  Uiso   1.00
C289   C     0.93950   0.94872   0.66823   0.00000  Uiso   1.00
C290   C     0.93113   0.90400   0.67535   0.00000  Uiso   1.00
C291   C     0.90926   0.88911   0.71020   0.00000  Uiso   1.00
C292   C     0.89630   0.92010   0.73719   0.00000  Uiso   1.00
C293   C     0.90541   0.96451   0.73053   0.00000  Uiso   1.00
C294   C     0.91987   0.81069   0.69970   0.00000  Uiso   1.00
H295   H    -0.00487   0.63337   0.80813   0.00000  Uiso   1.00
H296   H     0.95172   0.66263   0.74866   0.00000  Uiso   1.00
H297   H     0.02956   0.76614   0.71661   0.00000  Uiso   1.00
H298   H     0.07414   0.73589   0.77451   0.00000  Uiso   1.00
H299   H     0.93183   0.76920   0.75426   0.00000  Uiso   1.00
O300   O     0.95832   0.74002   0.70202   0.00000  Uiso   1.00
O301   O     0.90087   0.84440   0.72097   0.00000  Uiso   1.00
C302   C     0.03792   0.68232   0.79559   0.00000  Uiso   1.00
C303   C     0.00394   0.66094   0.78719   0.00000  Uiso   1.00
C304   C     0.97894   0.67790   0.75374   0.00000  Uiso   1.00
C305   C    -0.01270   0.71689   0.72914   0.00000  Uiso   1.00
C306   C     0.02281   0.73615   0.73562   0.00000  Uiso   1.00
C307   C     0.04795   0.71901   0.76866   0.00000  Uiso   1.00
C308   C     0.93495   0.77263   0.72108   0.00000  Uiso   1.00
H309   H     0.94204   0.88190   0.65342   0.00000  Uiso   1.00
H310   H     0.87959   0.90941   0.76407   0.00000  Uiso   1.00
H311   H     0.95625   0.95945   0.64132   0.00000  Uiso   1.00
H312   H     0.92365   0.81525   0.66680   0.00000  Uiso   1.00
H313   H     0.89506  -0.01242   0.75211   0.00000  Uiso   1.00
C314   C    -0.01009   0.51619   0.81195   0.00000  Uiso   1.00
C315   C     0.97480   0.50706   0.77424   0.00000  Uiso   1.00
C316   C     0.94224   0.48130   0.77291   0.00000  Uiso   1.00
C317   C     0.92380   0.46484   0.80953   0.00000  Uiso   1.00
C318   C     0.93802   0.47602   0.84673   0.00000  Uiso   1.00
C319   C     0.97082   0.50103   0.84808   0.00000  Uiso   1.00
C320   C     0.88155   0.41817   0.77628   0.00000  Uiso   1.00
H321   H     0.94784   0.22934   0.76276   0.00000  Uiso   1.00
H322   H     0.92788   0.30634   0.77541   0.00000  Uiso   1.00
H323   H     0.81835   0.30503   0.70691   0.00000  Uiso   1.00
H324   H     0.83864   0.22761   0.69362   0.00000  Uiso   1.00
H325   H     0.87681   0.35458   0.80769   0.00000  Uiso   1.00
O326   O     0.86122   0.35778   0.74332   0.00000  Uiso   1.00
O327   O     0.89397   0.43471   0.81195   0.00000  Uiso   1.00
C328   C     0.89472   0.22249   0.72737   0.00000  Uiso   1.00
C329   C     0.91894   0.24503   0.75144   0.00000  Uiso   1.00
C330   C     0.90733   0.28908   0.75890   0.00000  Uiso   1.00
C331   C     0.87097   0.31144   0.74255   0.00000  Uiso   1.00
C332   C     0.84612   0.28817   0.72004   0.00000  Uiso   1.00
C333   C     0.85763   0.24395   0.71276   0.00000  Uiso   1.00
C334   C     0.87327   0.37555   0.77849   0.00000  Uiso   1.00
H335   H     0.93279   0.47361   0.74331   0.00000  Uiso   1.00
H336   H     0.92445   0.46364   0.87512   0.00000  Uiso   1.00
H337   H     0.98930   0.51809   0.74596   0.00000  Uiso   1.00
H338   H     0.87851   0.43905   0.74711   0.00000  Uiso   1.00
H339   H    -0.01826   0.50790   0.87753   0.00000  Uiso   1.00
C340   C     0.70367   0.80037   0.08192   0.00000  Uiso   1.00
C341   C     0.70898   0.77334   0.04999   0.00000  Uiso   1.00
C342   C     0.74709   0.75356   0.04179   0.00000  Uiso   1.00
C343   C     0.78026   0.76051   0.06537   0.00000  Uiso   1.00
C344   C     0.77485   0.78656   0.09804   0.00000  Uiso   1.00
C345   C     0.73676   0.80633   0.10628   0.00000  Uiso   1.00
C346   C     0.84740   0.76730   1.04702   0.00000  Uiso   1.00
H347   H     0.04031   0.79551   0.98357   0.00000  Uiso   1.00
H348   H     0.97718   0.82151   1.01451   0.00000  Uiso   1.00
H349   H     0.93336   0.69305   1.00462   0.00000  Uiso   1.00
H350   H     0.99647   0.66680   0.97607   0.00000  Uiso   1.00
H351   H     0.89237   0.71437   0.05080   0.00000  Uiso   1.00
O352   O     0.91407   0.77843   1.02808   0.00000  Uiso   1.00
O353   O     0.81776   0.73853   0.05807   0.00000  Uiso   1.00
C354   C     0.02378   0.72856   0.97873   0.00000  Uiso   1.00
C355   C     1.01768   0.77236   0.98963   0.00000  Uiso   1.00
C356   C     0.98162   0.78732   1.00712   0.00000  Uiso   1.00
C357   C     0.95071   0.75932   1.01377   0.00000  Uiso   1.00
C358   C     0.95676   0.71538   1.00241   0.00000  Uiso   1.00
C359   C     0.99312   0.70014   0.98563   0.00000  Uiso   1.00
C360   C     0.88507   0.75006   1.04255   0.00000  Uiso   1.00
H361   H     0.75088   0.73308   0.01684   0.00000  Uiso   1.00
H362   H     0.80001   0.79066   0.11750   0.00000  Uiso   1.00
H363   H     0.68370   0.76793   0.03121   0.00000  Uiso   1.00
H364   H     0.83990   0.80330   1.03999   0.00000  Uiso   1.00
H365   H     0.73305   0.82573   0.13200   0.00000  Uiso   1.00
C366   C     0.60055   0.76599   0.22528   0.00000  Uiso   1.00
C367   C     0.63513   0.75957   0.25032   0.00000  Uiso   1.00
C368   C     0.63894   0.72510   0.28285   0.00000  Uiso   1.00
C369   C     0.60864   0.69637   0.29004   0.00000  Uiso   1.00
C370   C     0.57307   0.70475   0.26665   0.00000  Uiso   1.00
C371   C     0.56905   0.73929   0.23461   0.00000  Uiso   1.00
C372   C     0.61157   0.61888   0.30202   0.00000  Uiso   1.00
H373   H     0.50564   0.46810   0.38641   0.00000  Uiso   1.00
H374   H     0.56667   0.50599   0.37106   0.00000  Uiso   1.00
H375   H     0.51992   0.55522   0.25081   0.00000  Uiso   1.00
H376   H     0.45785   0.52012   0.26648   0.00000  Uiso   1.00
H377   H     0.58031   0.58908   0.35138   0.00000  Uiso   1.00
O378   O     0.58323   0.55130   0.29870   0.00000  Uiso   1.00
O379   O     0.61425   0.65885   0.31946   0.00000  Uiso   1.00
C380   C     0.47709   0.49112   0.32753   0.00000  Uiso   1.00
C381   C     0.50804   0.48779   0.35701   0.00000  Uiso   1.00
C382   C     0.54288   0.50907   0.34832   0.00000  Uiso   1.00
C383   C     0.54745   0.53316   0.30981   0.00000  Uiso   1.00
C384   C     0.51657   0.53676   0.28063   0.00000  Uiso   1.00
C385   C     0.48133   0.51668   0.28962   0.00000  Uiso   1.00
C386   C     0.59227   0.58603   0.32099   0.00000  Uiso   1.00
H387   H     0.66614   0.71950   0.30124   0.00000  Uiso   1.00
H388   H     0.54896   0.68353   0.27255   0.00000  Uiso   1.00
H389   H     0.65952   0.78032   0.24405   0.00000  Uiso   1.00
H390   H     0.62088   0.61647   0.27054   0.00000  Uiso   1.00
H391   H     0.54186   0.74405   0.21616   0.00000  Uiso   1.00
loop_
_geom_bond_atom_site_label_1
_geom_bond_atom_site_label_2
_geom_bond_distance
_geom_bond_site_symmetry_2
_ccdc_geom_bond_type
C0     O11     1.281   .     A
C0     O12     1.284   .     A
C0     C314    1.477   .     S
Sm1    O5      2.210   .     S
Sm1    O6      2.234   .     S
Sm1    O8      2.253   .     S
Sm1    O9      2.228   .     S
Sm1    O10     2.224   .     S
Sm1    O13     2.254   .     S
Sm2    O7      2.269   .     S
Sm2    O11     2.220   .     S
Sm2    O12     2.240   .     S
Sm2    O14     2.274   .     S
Sm2    O15     2.219   .     S
Sm2    O16     2.232   .     S
C3     O13     1.266   .     A
C3     O14     1.271   .     A
C3     C236    1.470   .     S
C4     O15     1.282   .     A
C4     O16     1.285   .     A
C4     C224    1.478   .     S
O5     C17     1.281   .     A
O6     C17     1.286   .     A
O7     C18     1.276   .     A
O8     C18     1.276   .     A
O9     C19     1.285   .     A
O10    C19     1.282   .     A
C17    C94     1.476   .     S
C18    C302    1.470   .     S
C19    C354    1.478   .     S
C20    O31     1.265   .     A
C20    O32     1.265   .     A
C20    C366    1.471   .     S
Sm21   O25     2.221   .     S
Sm21   O26     2.234   .     S
Sm21   O28     2.293   .     S
Sm21   O29     2.224   .     S
Sm21   O30     2.222   .     S
Sm21   O33     2.215   .     S
Sm22   O27     2.229   .     S
Sm22   O31     2.268   .     S
Sm22   O32     2.245   .     S
Sm22   O34     2.262   .     S
Sm22   O35     2.228   .     S
Sm22   O36     2.260   .     S
C23    O33     1.270   .     A
C23    O34     1.272   .     A
C23    C340    1.471   .     S
C24    O35     1.275   .     A
C24    O36     1.283   .     A
C24    C80     1.477   1_554 S
O25    C37     1.281   .     A
O26    C37     1.285   .     A
O27    C38     1.281   .     A
O28    C38     1.288   .     A
O29    C39     1.284   .     A
O30    C39     1.285   .     A
C37    C172    1.478   1_554 S
C38    C120    1.481   .     S
C39    C198    1.478   .     S
C40    O51     1.266   .     A
C40    O52     1.279   .     A
C40    C184    1.479   .     S
Sm41   O45     2.279   .     S
Sm41   O46     2.259   .     S
Sm41   O48     2.311   .     S
Sm41   O49     2.227   .     S
Sm41   O50     2.226   .     S
Sm41   O53     2.279   .     S
Sm42   O47     2.240   .     S
Sm42   O51     2.236   .     S
Sm42   O52     2.298   .     S
Sm42   O54     2.206   .     S
Sm42   O55     2.291   .     S
Sm42   O56     2.299   .     S
C43    O53     1.276   .     A
C43    O54     1.263   .     A
C43    C276    1.473   .     S
C44    O55     1.245   .     A
C44    O56     1.250   .     A
C44    C132    1.472   .     S
O45    C57     1.272   .     A
O46    C57     1.261   .     A
O47    C58     1.280   .     A
O48    C58     1.291   .     A
O49    C59     1.282   .     A
O50    C59     1.283   .     A
C57    C328    1.476   .     S
C58    C158    1.481   .     S
C59    C288    1.470   .     S
C60    O71     1.267   .     A
C60    O72     1.270   .     A
C60    C250    1.476   .     S
Sm61   O65     2.234   .     S
Sm61   O66     2.214   .     S
Sm61   O68     2.215   .     S
Sm61   O69     2.221   .     S
Sm61   O70     2.231   .     S
Sm61   O73     2.313   .     S
Sm62   O67     2.248   .     S
Sm62   O71     2.251   .     S
Sm62   O72     2.259   .     S
Sm62   O74     2.217   .     S
Sm62   O75     2.259   .     S
Sm62   O76     2.258   .     S
C63    O73     1.295   .     A
C63    O74     1.283   .     A
C63    C106    1.482   .     S
C64    O75     1.266   .     A
C64    O76     1.270   .     A
C64    C380    1.477   .     S
O65    C77     1.286   .     A
O66    C77     1.282   .     A
O67    C78     1.270   .     A
O68    C78     1.272   .     A
O69    C79     1.281   .     A
O70    C79     1.285   .     A
C77    C146    1.477   .     S
C78    C210    1.467   .     S
C79    C262    1.476   .     S
C80    C81     1.403   .     A
C80    C85     1.405   1_556 A
C80    C24     1.477   1_556 S
C81    C82     1.393   .     A
C81    H103    1.083   .     S
C82    C83     1.411   .     A
C82    H101    1.081   .     S
C83    O93     1.410   .     S
C83    C84     1.403   1_556 A
C84    C85     1.402   .     A
C84    H102    1.083   .     S
C84    C83     1.403   1_554 A
C85    H105    1.083   .     S
C85    C80     1.405   1_554 A
C86    O93     1.405   .     S
C86    C100    1.332   .     D
C86    H104    1.088   .     S
H87    C95     1.083   .     S
H88    C96     1.081   .     S
H89    C98     1.083   .     S
H90    C99     1.083   .     S
H91    C100    1.086   .     S
O92    C97     1.406   .     S
O92    C100    1.403   .     S
C94    C95     1.405   .     A
C94    C99     1.404   .     A
C95    C96     1.402   .     A
C96    C97     1.413   .     A
C97    C98     1.397   .     A
C98    C99     1.394   .     A
C106   C107    1.407   .     A
C106   C111    1.407   .     A
C107   C108    1.398   .     A
C107   H129    1.083   .     S
C108   C109    1.398   .     A
C108   H127    1.082   .     S
C109   C110    1.407   .     A
C109   O119    1.404   .     S
C110   C111    1.396   .     A
C110   H128    1.082   .     S
C111   H131    1.083   .     S
C112   O119    1.404   .     S
C112   C126    1.330   .     D
C112   H130    1.088   .     S
H113   C121    1.083   .     S
H114   C122    1.082   .     S
H115   C124    1.082   .     S
H116   C125    1.083   .     S
H117   C126    1.087   .     S
O118   C123    1.404   .     S
O118   C126    1.404   .     S
C120   C121    1.407   .     A
C120   C125    1.406   .     A
C121   C122    1.396   1_565 A
C122   C123    1.409   .     A
C122   C121    1.396   1_545 A
C123   C124    1.398   .     A
C124   C125    1.395   1_545 A
C125   C124    1.395   1_565 A
C132   C133    1.403   .     A
C132   C137    1.407   .     A
C133   C134    1.397   .     A
C133   H155    1.083   .     S
C134   C135    1.399   .     A
C134   H153    1.082   .     S
C135   C136    1.403   .     A
C135   O145    1.397   .     S
C136   C137    1.399   .     A
C136   H154    1.083   .     S
C137   H157    1.084   .     S
C138   O145    1.404   .     S
C138   C152    1.333   .     D
C138   H156    1.090   .     S
H139   C147    1.084   .     S
H140   C148    1.082   .     S
H141   C150    1.081   .     S
H142   C151    1.084   .     S
H143   C152    1.088   .     S
O144   C149    1.406   .     S
O144   C152    1.406   .     S
C146   C147    1.404   .     A
C146   C151    1.405   .     A
C147   C148    1.400   .     A
C148   C149    1.402   .     A
C149   C150    1.408   .     A
C150   C151    1.396   .     A
C158   C159    1.406   .     A
C158   C163    1.408   .     A
C159   C160    1.401   .     A
C159   H181    1.084   .     S
C160   C161    1.402   .     A
C160   H179    1.082   1_545 S
C161   C162    1.404   .     A
C161   O171    1.406   .     S
C162   C163    1.394   .     A
C162   H180    1.083   .     S
C163   H183    1.082   .     S
C164   C178    1.335   .     D
C164   H182    1.089   .     S
C164   O171    1.408   1_565 S
H165   C173    1.083   1_554 S
H166   C174    1.082   1_545 S
H167   C176    1.083   .     S
H168   C177    1.083   .     S
H169   C178    1.086   1_545 S
O170   C175    1.408   .     S
O170   C178    1.406   .     S
O171   C164    1.408   1_545 S
C172   C173    1.406   .     A
C172   C177    1.404   .     A
C172   C37     1.478   1_556 S
C173   C174    1.399   .     A
C173   H165    1.083   1_556 S
C174   C175    1.410   .     A
C174   H166    1.082   1_565 S
C175   C176    1.402   .     A
C176   C177    1.399   .     A
C178   H169    1.086   1_565 S
H179   C160    1.082   1_565 S
C184   C189    1.404   .     A
C184   C185    1.406   1_545 A
C185   C186    1.407   .     A
C185   H207    1.083   .     S
C185   C184    1.406   1_565 A
C186   C187    1.405   .     A
C186   H205    1.083   .     S
C187   O197    1.409   .     S
C187   C188    1.407   1_565 A
C188   C189    1.389   .     A
C188   H206    1.083   .     S
C188   C187    1.407   1_545 A
C189   H209    1.083   .     S
C190   O197    1.405   .     S
C190   C204    1.335   .     D
C190   H208    1.089   .     S
H191   C199    1.083   .     S
H192   C200    1.083   .     S
H193   C202    1.081   .     S
H194   C203    1.083   .     S
H195   C204    1.085   .     S
O196   C201    1.407   .     S
O196   C204    1.403   .     S
C198   C199    1.403   .     A
C198   C203    1.406   .     A
C199   C200    1.396   .     A
C200   C201    1.400   .     A
C201   C202    1.410   .     A
C202   C203    1.401   .     A
C210   C211    1.401   .     A
C210   C215    1.400   .     A
C211   C212    1.398   .     A
C211   H233    1.084   .     S
C212   C213    1.413   .     A
C212   H231    1.081   .     S
C213   C214    1.399   .     A
C213   O223    1.407   .     S
C214   C215    1.396   .     A
C214   H232    1.082   .     S
C215   H235    1.082   .     S
C216   O223    1.403   .     S
C216   C230    1.332   .     D
C216   H234    1.088   .     S
H217   C225    1.083   .     S
H218   C226    1.082   .     S
H219   C228    1.083   .     S
H220   C229    1.083   .     S
H221   C230    1.088   .     S
O222   C227    1.406   .     S
O222   C230    1.403   .     S
C224   C225    1.405   .     A
C224   C229    1.405   .     A
C225   C226    1.401   .     A
C226   C227    1.411   .     A
C227   C228    1.397   .     A
C228   C229    1.397   .     A
C236   C237    1.401   .     A
C236   C241    1.402   .     A
C237   H259    1.083   .     S
C237   C238    1.397   1_556 A
C238   C239    1.411   .     A
C238   H257    1.082   .     S
C238   C237    1.397   1_554 A
C239   O249    1.408   .     S
C239   C240    1.402   1_554 A
C240   C241    1.400   .     A
C240   C239    1.402   1_556 A
C240   H258    1.083   1_556 S
C241   H261    1.083   .     S
C242   O249    1.405   .     S
C242   C256    1.333   .     D
C242   H260    1.087   .     S
H243   C251    1.083   .     S
H244   C252    1.082   .     S
H245   C254    1.083   .     S
H246   C255    1.083   .     S
H247   C256    1.087   .     S
O248   C253    1.407   .     S
O248   C256    1.406   .     S
C250   C251    1.404   .     A
C250   C255    1.405   .     A
C251   C252    1.398   .     A
C252   C253    1.410   .     A
C253   C254    1.401   .     A
C254   C255    1.399   .     A
H258   C240    1.083   1_554 S
C262   C263    1.405   .     A
C262   C267    1.405   .     A
C263   C264    1.395   .     A
C263   H285    1.083   .     S
C264   C265    1.410   .     A
C264   H283    1.083   .     S
C265   C266    1.400   .     A
C265   O275    1.405   .     S
C266   C267    1.399   .     A
C266   H284    1.083   .     S
C267   H287    1.083   .     S
C268   O275    1.404   .     S
C268   C282    1.329   .     D
C268   H286    1.088   .     S
H269   C277    1.083   .     S
H270   C278    1.082   .     S
H271   C280    1.083   .     S
H272   C281    1.083   .     S
H273   C282    1.089   .     S
O274   C279    1.400   .     S
O274   C282    1.404   .     S
C276   C277    1.404   .     A
C276   C281    1.406   .     A
C277   C278    1.393   1_655 A
C278   C279    1.406   .     A
C278   C277    1.393   1_455 A
C279   C280    1.399   1_455 A
C280   C281    1.396   .     A
C280   C279    1.399   1_655 A
C288   C289    1.402   1_545 A
C288   C293    1.401   1_545 A
C289   C290    1.398   .     A
C289   H311    1.084   .     S
C289   C288    1.402   1_565 A
C290   C291    1.415   .     A
C290   H309    1.078   .     S
C291   C292    1.401   .     A
C291   O301    1.410   .     S
C292   C293    1.396   .     A
C292   H310    1.082   .     S
C293   C288    1.401   1_565 A
C293   H313    1.084   1_565 S
C294   O301    1.403   .     S
C294   C308    1.332   .     D
C294   H312    1.084   .     S
H295   C303    1.082   .     S
H296   C304    1.082   .     S
H297   C306    1.083   .     S
H298   C307    1.084   .     S
H299   C308    1.090   .     S
O300   C308    1.404   .     S
O300   C305    1.397   1_655 S
C302   C303    1.404   .     A
C302   C307    1.404   .     A
C303   C304    1.400   1_455 A
C304   C303    1.400   1_655 A
C304   C305    1.402   1_655 A
C305   C306    1.400   .     A
C305   O300    1.397   1_455 S
C305   C304    1.402   1_455 A
C306   C307    1.394   .     A
H313   C293    1.084   1_545 S
C314   C315    1.404   1_455 A
C314   C319    1.402   1_455 A
C315   C316    1.403   .     A
C315   H337    1.083   .     S
C315   C314    1.404   1_655 A
C316   C317    1.416   .     A
C316   H335    1.079   .     S
C317   C318    1.399   .     A
C317   O327    1.411   .     S
C318   C319    1.396   .     A
C318   H336    1.083   .     S
C319   C314    1.402   1_655 A
C319   H339    1.083   1_655 S
C320   O327    1.403   .     S
C320   C334    1.335   .     D
C320   H338    1.085   .     S
H321   C329    1.083   .     S
H322   C330    1.082   .     S
H323   C332    1.082   .     S
H324   C333    1.083   .     S
H325   C334    1.088   .     S
O326   C331    1.408   .     S
O326   C334    1.403   .     S
C328   C329    1.404   .     A
C328   C333    1.404   .     A
C329   C330    1.398   .     A
C330   C331    1.411   .     A
C331   C332    1.401   .     A
C332   C333    1.400   .     A
H339   C319    1.083   1_455 S
C340   C341    1.402   .     A
C340   C345    1.404   .     A
C341   C342    1.399   .     A
C341   H363    1.083   .     S
C342   C343    1.400   .     A
C342   H361    1.082   .     S
C343   C344    1.403   .     A
C343   O353    1.399   .     S
C344   C345    1.398   .     A
C344   H362    1.083   .     S
C345   H365    1.083   .     S
C346   C360    1.335   .     D
C346   H364    1.090   .     S
C346   O353    1.403   1_556 S
H347   C355    1.084   1_455 S
H348   C356    1.083   .     S
H349   C358    1.079   .     S
H350   C359    1.083   .     S
H351   C360    1.085   1_554 S
O352   C357    1.412   .     S
O352   C360    1.405   .     S
O353   C346    1.403   1_554 S
C354   C355    1.405   1_455 A
C354   C359    1.403   1_455 A
C355   C356    1.399   .     A
C355   H347    1.084   1_655 S
C355   C354    1.405   1_655 A
C356   C357    1.401   .     A
C357   C358    1.414   .     A
C358   C359    1.399   .     A
C359   C354    1.403   1_655 A
C360   H351    1.085   1_556 S
C366   C367    1.406   .     A
C366   C371    1.402   .     A
C367   C368    1.401   .     A
C367   H389    1.083   .     S
C368   C369    1.401   .     A
C368   H387    1.082   .     S
C369   C370    1.405   .     A
C369   O379    1.401   .     S
C370   C371    1.392   .     A
C370   H388    1.083   .     S
C371   H391    1.083   .     S
C372   O379    1.403   .     S
C372   C386    1.332   .     D
C372   H390    1.090   .     S
H373   C381    1.083   .     S
H374   C382    1.082   .     S
H375   C384    1.083   .     S
H376   C385    1.083   .     S
H377   C386    1.088   .     S
O378   C383    1.398   .     S
O378   C386    1.400   .     S
C380   C381    1.408   .     A
C380   C385    1.404   .     A
C381   C382    1.401   .     A
C382   C383    1.403   .     A
C383   C384    1.399   .     A
C384   C385    1.396   .     A
