data_lcy+N173+E229
_audit_creation_date              2025-01-21
_audit_creation_method            'Materials Studio'
_symmetry_space_group_name_H-M    'P1'
_symmetry_Int_Tables_number       1
_symmetry_cell_setting            triclinic
loop_
_symmetry_equiv_pos_as_xyz
  x,y,z
_cell_length_a                    38.1419
_cell_length_b                    36.9617
_cell_length_c                    38.3728
_cell_angle_alpha                 94.7353
_cell_angle_beta                  88.6302
_cell_angle_gamma                 96.5464
loop_
_atom_site_label
_atom_site_type_symbol
_atom_site_fract_x
_atom_site_fract_y
_atom_site_fract_z
_atom_site_U_iso_or_equiv
_atom_site_adp_type
_atom_site_occupancy
Gd0    Gd    0.12719   0.65213   0.85226   0.00000  Uiso   1.00
Gd1    Gd    0.15469   0.61897   0.89157   0.00000  Uiso   1.00
O2     O     0.10846   0.57798   0.88353   0.00000  Uiso   1.00
O3     O     0.08984   0.60226   0.83727   0.00000  Uiso   1.00
O4     O     0.16085   0.62882   0.80943   0.00000  Uiso   1.00
O5     O     0.17919   0.59056   0.84504   0.00000  Uiso   1.00
O6     O     0.10488   0.69065   0.81787   0.00000  Uiso   1.00
O7     O     0.07567   0.64000   0.82203   0.00000  Uiso   1.00
O8     O     0.16740   0.69894   0.87074   0.00000  Uiso   1.00
C9     C     0.07646   0.67118   0.81034   0.00000  Uiso   1.00
O10    O     0.19881   0.66235   0.89566   0.00000  Uiso   1.00
O11    O     0.09297   0.66898   0.89671   0.00000  Uiso   1.00
C12    C     0.17544   0.60006   0.81420   0.00000  Uiso   1.00
O13    O     0.12588   0.64727   0.93504   0.00000  Uiso   1.00
O14    O     0.13019   0.56561   0.91122   0.00000  Uiso   1.00
O15    O     0.17997   0.58709   0.93034   0.00000  Uiso   1.00
C16    C     0.09122   0.57492   0.85517   0.00000  Uiso   1.00
C17    C     0.15468   0.56213   0.93216   0.00000  Uiso   1.00
C18    C     0.09947   0.66348   0.92805   0.00000  Uiso   1.00
C19    C     0.19307   0.69417   0.88982   0.00000  Uiso   1.00
Gd20   Gd    0.66905   0.83867   0.11591   0.00000  Uiso   1.00
Gd21   Gd    0.57977   0.91105   0.13803   0.00000  Uiso   1.00
O22    O     0.56376   0.86498   0.09613   0.00000  Uiso   1.00
O23    O     0.61801   0.85511   0.09791   0.00000  Uiso   1.00
O24    O     0.62655   0.81464   0.15247   0.00000  Uiso   1.00
O25    O     0.60656   0.86721   0.16188   0.00000  Uiso   1.00
O26    O     0.70662   0.84202   0.07118   0.00000  Uiso   1.00
O27    O     0.66547   0.79671   0.07143   0.00000  Uiso   1.00
O28    O     0.68670   0.88652   0.15505   0.00000  Uiso   1.00
C29    C     0.69255   0.81198   0.05571   0.00000  Uiso   1.00
O30    O     0.63227   0.89503   0.15404   0.00000  Uiso   1.00
O31    O     0.65208   0.88424   0.08302   0.00000  Uiso   1.00
C32    C     0.60071   0.83220   0.16207   0.00000  Uiso   1.00
O33    O     0.62002   0.93183   0.09800   0.00000  Uiso   1.00
O34    O     0.54592   0.90827   0.18632   0.00000  Uiso   1.00
O35    O     0.58694   0.95277   0.18241   0.00000  Uiso   1.00
C36    C     0.58772   0.84556   0.08467   0.00000  Uiso   1.00
C37    C     0.56130   0.93839   0.20023   0.00000  Uiso   1.00
C38    C     0.63912   0.91404   0.07626   0.00000  Uiso   1.00
C39    C     0.66356   0.90760   0.16399   0.00000  Uiso   1.00
Gd40   Gd    0.89246   0.09282   0.62957   0.00000  Uiso   1.00
Gd41   Gd    0.84199   0.11413   0.61624   0.00000  Uiso   1.00
O42    O     0.85125   0.16619   0.64690   0.00000  Uiso   1.00
O43    O     0.90136   0.14764   0.66123   0.00000  Uiso   1.00
O44    O     0.92319   0.11500   0.58585   0.00000  Uiso   1.00
O45    O     0.87797   0.14369   0.57534   0.00000  Uiso   1.00
O46    O     0.92777   0.04816   0.63501   0.00000  Uiso   1.00
O47    O     0.94624   0.09959   0.65475   0.00000  Uiso   1.00
O48    O     0.88023   0.04065   0.59599   0.00000  Uiso   1.00
C49    C     0.95222   0.06730   0.65067   0.00000  Uiso   1.00
O50    O     0.83091   0.06157   0.58338   0.00000  Uiso   1.00
O51    O     0.86689   0.07047   0.67580   0.00000  Uiso   1.00
C52    C     0.91145   0.14152   0.57344   0.00000  Uiso   1.00
O53    O     0.81723   0.09167   0.66568   0.00000  Uiso   1.00
O54    O     0.84228   0.14182   0.56679   0.00000  Uiso   1.00
O55    O     0.79346   0.13140   0.59403   0.00000  Uiso   1.00
C56    C     0.88080   0.17281   0.66146   0.00000  Uiso   1.00
C57    C     0.80912   0.14360   0.56713   0.00000  Uiso   1.00
C58    C     0.83733   0.07900   0.68669   0.00000  Uiso   1.00
C59    C     0.85158   0.03693   0.57903   0.00000  Uiso   1.00
Gd60   Gd    0.35583   0.38993   0.35049   0.00000  Uiso   1.00
Gd61   Gd    0.39284   0.37396   0.42133   0.00000  Uiso   1.00
O62    O     0.35157   0.41133   0.43309   0.00000  Uiso   1.00
O63    O     0.36075   0.44109   0.38696   0.00000  Uiso   1.00
O64    O     0.31755   0.35778   0.38636   0.00000  Uiso   1.00
O65    O     0.34884   0.32972   0.42357   0.00000  Uiso   1.00
O66    O     0.37923   0.42029   0.30695   0.00000  Uiso   1.00
O67    O     0.32503   0.42493   0.32219   0.00000  Uiso   1.00
O68    O     0.39575   0.35547   0.36664   0.00000  Uiso   1.00
C69    C     0.35127   0.43531   0.30256   0.00000  Uiso   1.00
O70    O     0.39476   0.35611   0.36430   0.00000  Uiso   1.00
O71    O     0.40298   0.43278   0.36190   0.00000  Uiso   1.00
C72    C     0.32143   0.33098   0.40504   0.00000  Uiso   1.00
O73    O     0.43294   0.42030   0.40885   0.00000  Uiso   1.00
O74    O     0.40838   0.37411   0.47632   0.00000  Uiso   1.00
O75    O     0.43441   0.34185   0.43618   0.00000  Uiso   1.00
C76    C     0.35459   0.44118   0.41939   0.00000  Uiso   1.00
C77    C     0.43225   0.35301   0.46852   0.00000  Uiso   1.00
C78    C     0.42961   0.43905   0.38256   0.00000  Uiso   1.00
C79    C     0.41030   0.32961   0.35080   0.00000  Uiso   1.00
C80    C     0.53763   0.77199   0.02475   0.00000  Uiso   1.00
C81    C     0.56167   0.76969   0.99661   0.00000  Uiso   1.00
C82    C     0.59462   0.79048  -0.00172   0.00000  Uiso   1.00
C83    C     0.60392   0.81371   0.02800   0.00000  Uiso   1.00
C84    C     0.58039   0.81619   0.05655   0.00000  Uiso   1.00
C85    C     0.54714   0.79536   0.05468   0.00000  Uiso   1.00
C86    C     0.50165   0.75056   0.02220   0.00000  Uiso   1.00
H87    H     0.55469   0.75216   0.97320   0.00000  Uiso   1.00
H88    H     0.61269   0.78925   0.97612   0.00000  Uiso   1.00
H89    H     0.62872   0.83116   0.02788   0.00000  Uiso   1.00
H90    H     0.52828   0.79818   0.07603   0.00000  Uiso   1.00
H91    H     0.50443   0.72206   1.01162   0.00000  Uiso   1.00
H92    H     0.48915   0.74949   0.04864   0.00000  Uiso   1.00
C93    C     0.26437   0.75749   0.93611   0.00000  Uiso   1.00
C94    C     0.24458   0.73994   0.90771   0.00000  Uiso   1.00
C95    C     0.30191   0.77354   0.93131   0.00000  Uiso   1.00
C96    C     0.36023   0.77253   0.95383   0.00000  Uiso   1.00
C97    C     0.38334   0.74972   0.97289   0.00000  Uiso   1.00
C98    C     0.24957   0.75794   0.97002   0.00000  Uiso   1.00
C99    C     0.21502   0.74265   0.97547   0.00000  Uiso   1.00
C100   C     0.21013   0.72359   0.91353   0.00000  Uiso   1.00
H101   H     0.26513   0.76921   0.99239   0.00000  Uiso   1.00
H102   H     0.20410   0.74174   1.00170   0.00000  Uiso   1.00
H103   H     0.16915   0.71259   0.95227   0.00000  Uiso   1.00
H104   H     0.25653   0.73731   0.88185   0.00000  Uiso   1.00
H105   H     0.30423   0.80262   0.94204   0.00000  Uiso   1.00
C106   C     0.44414   0.74800   0.99694   0.00000  Uiso   1.00
C107   C     0.42086   0.76901   0.97614   0.00000  Uiso   1.00
H108   H     0.37204   0.77776   0.92768   0.00000  Uiso   1.00
H109   H     0.37186   0.74562   0.99939   0.00000  Uiso   1.00
H110   H     0.38394   0.72261   0.95814   0.00000  Uiso   1.00
H111   H     0.35860   0.79901   0.96954   0.00000  Uiso   1.00
H112   H     0.30951   0.77267   0.90315   0.00000  Uiso   1.00
H113   H     0.43234   0.74550   0.02355   0.00000  Uiso   1.00
H114   H     0.44546   0.72033   0.98352   0.00000  Uiso   1.00
N115   N     0.47957   0.76787   0.99922   0.00000  Uiso   1.00
N116   N     0.32495   0.75272   0.94983   0.00000  Uiso   1.00
C117   C     0.19520   0.72630   0.94731   0.00000  Uiso   1.00
C118   C     0.41810   0.27265   0.26537   0.00000  Uiso   1.00
C119   C     0.38888   0.28099   0.24724   0.00000  Uiso   1.00
C120   C     0.36682   0.30568   0.26264   0.00000  Uiso   1.00
C121   C     0.37368   0.32237   0.29615   0.00000  Uiso   1.00
C122   C     0.40285   0.31443   0.31463   0.00000  Uiso   1.00
C123   C     0.42481   0.28941   0.29913   0.00000  Uiso   1.00
C124   C     0.44240   0.24655   0.24876   0.00000  Uiso   1.00
H125   H     0.38301   0.26832   0.22125   0.00000  Uiso   1.00
H126   H     0.34409   0.31170   0.24876   0.00000  Uiso   1.00
H127   H     0.35576   0.34063   0.30782   0.00000  Uiso   1.00
H128   H     0.44727   0.28284   0.31324   0.00000  Uiso   1.00
H129   H     0.43614   0.24006   0.22059   0.00000  Uiso   1.00
H130   H     0.47003   0.25993   0.25055   0.00000  Uiso   1.00
C131   C     0.51281   0.00081   0.26151   0.00000  Uiso   1.00
C132   C     0.51983   0.97608   0.23301   0.00000  Uiso   1.00
C133   C     0.48274   0.02382   0.26073   0.00000  Uiso   1.00
C134   C     0.47042   0.08682   0.26761   0.00000  Uiso   1.00
C135   C     0.48196   0.12451   0.25484   0.00000  Uiso   1.00
C136   C     0.53511   0.00506   0.29048   0.00000  Uiso   1.00
C137   C     0.56436   0.98549   0.29072   0.00000  Uiso   1.00
C138   C     0.54971   0.95707   0.23292   0.00000  Uiso   1.00
H139   H     0.53012   0.02399   0.31263   0.00000  Uiso   1.00
H140   H     0.58171   0.98934   0.31295   0.00000  Uiso   1.00
H141   H     0.59575   0.94846   0.26157   0.00000  Uiso   1.00
H142   H     0.50335   0.97327   0.21010   0.00000  Uiso   1.00
H143   H     0.46688   0.02106   0.28529   0.00000  Uiso   1.00
C144   C     0.46417   0.18839   0.25272   0.00000  Uiso   1.00
C145   C     0.45569   0.15127   0.26751   0.00000  Uiso   1.00
H146   H     0.44432   0.07625   0.25616   0.00000  Uiso   1.00
H147   H     0.50859   0.13490   0.26501   0.00000  Uiso   1.00
H148   H     0.48327   0.12212   0.22577   0.00000  Uiso   1.00
H149   H     0.46781   0.08924   0.29663   0.00000  Uiso   1.00
H150   H     0.46520   0.01416   0.23832   0.00000  Uiso   1.00
H151   H     0.49125   0.20026   0.26047   0.00000  Uiso   1.00
H152   H     0.46277   0.18452   0.22370   0.00000  Uiso   1.00
N153   N     0.43857   0.21275   0.26665   0.00000  Uiso   1.00
N154   N     0.49684   0.06198   0.25719   0.00000  Uiso   1.00
C155   C     0.57201   0.96204   0.26181   0.00000  Uiso   1.00
C156   C     0.73710   0.17123   0.51252   0.00000  Uiso   1.00
C157   C     0.75642   0.18132   0.48256   0.00000  Uiso   1.00
C158   C     0.79276   0.17953   0.48058   0.00000  Uiso   1.00
C159   C     0.81005   0.16755   0.50837   0.00000  Uiso   1.00
C160   C     0.79103   0.15747   0.53853   0.00000  Uiso   1.00
C161   C     0.75454   0.15934   0.54047   0.00000  Uiso   1.00
C162   C     0.69802   0.17262   0.51424   0.00000  Uiso   1.00
H163   H     0.74328   0.19055   0.46077   0.00000  Uiso   1.00
H164   H     0.80754   0.18720   0.45739   0.00000  Uiso   1.00
H165   H     0.83817   0.16575   0.50613   0.00000  Uiso   1.00
H166   H     0.73966   0.15120   0.56350   0.00000  Uiso   1.00
H167   H     0.68580   0.15359   0.49279   0.00000  Uiso   1.00
H168   H     0.68686   0.16377   0.53964   0.00000  Uiso   1.00
C169   C     0.51608   0.33348   0.50880   0.00000  Uiso   1.00
C170   C     0.49182   0.34062   0.48422   0.00000  Uiso   1.00
C171   C     0.55389   0.33128   0.49848   0.00000  Uiso   1.00
C172   C     0.59981   0.29233   0.50097   0.00000  Uiso   1.00
C173   C     0.60634   0.25293   0.50353   0.00000  Uiso   1.00
C174   C     0.50463   0.32825   0.54326   0.00000  Uiso   1.00
C175   C     0.46950   0.33113   0.55318   0.00000  Uiso   1.00
C176   C     0.45666   0.34370   0.49424   0.00000  Uiso   1.00
H177   H     0.52296   0.32206   0.56239   0.00000  Uiso   1.00
H178   H     0.46076   0.32715   0.57973   0.00000  Uiso   1.00
H179   H     0.41852   0.34200   0.53676   0.00000  Uiso   1.00
H180   H     0.50041   0.34470   0.45751   0.00000  Uiso   1.00
H181   H     0.57060   0.35119   0.51612   0.00000  Uiso   1.00
C182   C     0.65260   0.21122   0.50909   0.00000  Uiso   1.00
C183   C     0.64573   0.25017   0.50475   0.00000  Uiso   1.00
H184   H     0.61175   0.30221   0.47624   0.00000  Uiso   1.00
H185   H     0.59332   0.24294   0.52773   0.00000  Uiso   1.00
H186   H     0.59487   0.23587   0.48045   0.00000  Uiso   1.00
H187   H     0.61200   0.30945   0.52373   0.00000  Uiso   1.00
H188   H     0.55911   0.33844   0.47108   0.00000  Uiso   1.00
H189   H     0.63994   0.20240   0.53389   0.00000  Uiso   1.00
H190   H     0.64126   0.19318   0.48653   0.00000  Uiso   1.00
N191   N     0.69058   0.20995   0.51026   0.00000  Uiso   1.00
N192   N     0.56179   0.29401   0.50151   0.00000  Uiso   1.00
C193   C     0.44562   0.33937   0.52885   0.00000  Uiso   1.00
C194   C     0.79756   0.07462   0.77929   0.00000  Uiso   1.00
C195   C     0.82821   0.08601   0.79864   0.00000  Uiso   1.00
C196   C     0.86028   0.09452   0.78174   0.00000  Uiso   1.00
C197   C     0.86214   0.09157   0.74547   0.00000  Uiso   1.00
C198   C     0.83181   0.08051   0.72514   0.00000  Uiso   1.00
C199   C     0.79912   0.07272   0.74226   0.00000  Uiso   1.00
C200   C     0.76416   0.06363   0.79903   0.00000  Uiso   1.00
H201   H     0.82730   0.08796   0.82697   0.00000  Uiso   1.00
H202   H     0.88390   0.10324   0.79670   0.00000  Uiso   1.00
H203   H     0.88763   0.09858   0.73315   0.00000  Uiso   1.00
H204   H     0.77555   0.06434   0.72716   0.00000  Uiso   1.00
H205   H     0.75890   0.08696   0.81802   0.00000  Uiso   1.00
H206   H     0.74140   0.05783   0.78117   0.00000  Uiso   1.00
C207   C     0.66602   0.92126   0.98097   0.00000  Uiso   1.00
C208   C     0.66826   0.91657   0.01686   0.00000  Uiso   1.00
C209   C     0.69717   0.91849   0.95665   0.00000  Uiso   1.00
C210   C     0.72739   0.95435   0.91227   0.00000  Uiso   1.00
C211   C     0.73447   0.99340   0.90161   0.00000  Uiso   1.00
C212   C     0.63453   0.93058   0.96775   0.00000  Uiso   1.00
C213   C     0.60602   0.93632  -0.00993   0.00000  Uiso   1.00
C214   C     0.63971   0.92302   0.03954   0.00000  Uiso   1.00
H215   H     0.63221   0.93369   0.94010   0.00000  Uiso   1.00
H216   H     0.58169   0.94312  -0.02032   0.00000  Uiso   1.00
H217   H     0.58580   0.93654   0.04244   0.00000  Uiso   1.00
H218   H     0.69209   0.90828   0.02709   0.00000  Uiso   1.00
H219   H     0.68889   0.89899   0.93386   0.00000  Uiso   1.00
C220   C     0.75425   0.03218   0.85215   0.00000  Uiso   1.00
C221   C     0.75166   0.99416   0.86533   0.00000  Uiso   1.00
H222   H     0.75274   0.94257   0.91445   0.00000  Uiso   1.00
H223   H     0.70892   0.00521   0.90138   0.00000  Uiso   1.00
H224   H     0.75204   0.01011   0.92098   0.00000  Uiso   1.00
H225   H     0.71080   0.93767   0.89201   0.00000  Uiso   1.00
H226   H     0.71925   0.90801   0.96966   0.00000  Uiso   1.00
H227   H     0.72751   0.04152   0.85282   0.00000  Uiso   1.00
H228   H     0.77220   0.05140   0.86928   0.00000  Uiso   1.00
N229   N     0.76837   0.03046   0.81637   0.00000  Uiso   1.00
N230   N     0.70882   0.95514   0.94604   0.00000  Uiso   1.00
C231   C     0.60868   0.93299   0.02577   0.00000  Uiso   1.00
C232   C     0.80417   0.97720   0.50526   0.00000  Uiso   1.00
C233   C     0.82323   0.94680   0.50295   0.00000  Uiso   1.00
C234   C     0.85125   0.94548   0.52550   0.00000  Uiso   1.00
C235   C     0.86064  -0.02549   0.55058   0.00000  Uiso   1.00
C236   C     0.84192   0.00524   0.55333   0.00000  Uiso   1.00
C237   C     0.81368   0.00624   0.53043   0.00000  Uiso   1.00
C238   C     0.77289   0.97789   0.48209   0.00000  Uiso   1.00
H239   H     0.81614   0.92402   0.48387   0.00000  Uiso   1.00
H240   H     0.86563   0.92176   0.52361   0.00000  Uiso   1.00
H241   H     0.88232  -0.02721   0.56786   0.00000  Uiso   1.00
H242   H     0.79900   0.02976   0.53205   0.00000  Uiso   1.00
H243   H     0.75356   0.95375   0.48655   0.00000  Uiso   1.00
H244   H     0.75966   1.00290   0.48900   0.00000  Uiso   1.00
C245   C     0.70591   0.97391   0.23563   0.00000  Uiso   1.00
C246   C     0.69607   0.94191   0.21404   0.00000  Uiso   1.00
C247   C     0.73397   0.97469   0.26280   0.00000  Uiso   1.00
C248   C     0.74680   0.98487   0.32411   0.00000  Uiso   1.00
C249   C     0.73419   0.97235   0.35973   0.00000  Uiso   1.00
C250   C     0.69173   1.00612   0.22941   0.00000  Uiso   1.00
C251   C     0.66937   1.00666   0.20114   0.00000  Uiso   1.00
C252   C     0.67285   0.94201   0.18604   0.00000  Uiso   1.00
H253   H     0.69908   0.03109   0.24566   0.00000  Uiso   1.00
H254   H     0.65948   0.03195   0.19589   0.00000  Uiso   1.00
H255   H     0.64454   0.97636   0.15646   0.00000  Uiso   1.00
H256   H     0.70669   0.91687   0.21893   0.00000  Uiso   1.00
H257   H     0.75374  -0.00117   0.25954   0.00000  Uiso   1.00
C258   C     0.75351   0.96999   0.42238   0.00000  Uiso   1.00
C259   C     0.76446   0.98040   0.38575   0.00000  Uiso   1.00
H260   H     0.77042   0.97094   0.31588   0.00000  Uiso   1.00
H261   H     0.71144   0.98694   0.36927   0.00000  Uiso   1.00
H262   H     0.72569   0.94246   0.35713   0.00000  Uiso   1.00
H263   H     0.75460   0.01489   0.32660   0.00000  Uiso   1.00
H264   H     0.74797   0.94984   0.25861   0.00000  Uiso   1.00
H265   H     0.73195   0.98629   0.43213   0.00000  Uiso   1.00
H266   H     0.74379   0.94039   0.42135   0.00000  Uiso   1.00
N267   N     0.78415   0.97738   0.44528   0.00000  Uiso   1.00
N268   N     0.71864   0.97638   0.29824   0.00000  Uiso   1.00
C269   C     0.66052   0.97496   0.17911   0.00000  Uiso   1.00
C270   C     0.33498   0.51274   0.49151   0.00000  Uiso   1.00
C271   C     0.36740   0.53493   0.49294   0.00000  Uiso   1.00
C272   C     0.39411   0.52808   0.46873   0.00000  Uiso   1.00
C273   C     0.38877   0.49889   0.44323   0.00000  Uiso   1.00
C274   C     0.35692   0.47559   0.44204   0.00000  Uiso   1.00
C275   C     0.32998   0.48278   0.46630   0.00000  Uiso   1.00
C276   C     0.30622   0.52111   0.51715   0.00000  Uiso   1.00
H277   H     0.37193   0.55755   0.51277   0.00000  Uiso   1.00
H278   H     0.41923   0.54506   0.47007   0.00000  Uiso   1.00
H279   H     0.41030   0.49368   0.42563   0.00000  Uiso   1.00
H280   H     0.30540   0.46494   0.46590   0.00000  Uiso   1.00
H281   H     0.30440   0.55111   0.51870   0.00000  Uiso   1.00
H282   H     0.28035   0.50696   0.50814   0.00000  Uiso   1.00
C283   C     0.21616   0.53235   0.74895   0.00000  Uiso   1.00
C284   C     0.21383   0.56040   0.77602   0.00000  Uiso   1.00
C285   C     0.25104   0.52107   0.73577   0.00000  Uiso   1.00
C286   C     0.27484   0.51274   0.67614   0.00000  Uiso   1.00
C287   C     0.27543   0.53011   0.64142   0.00000  Uiso   1.00
C288   C     0.18546   0.51648   0.73171   0.00000  Uiso   1.00
C289   C     0.15297   0.52863   0.74067   0.00000  Uiso   1.00
C290   C     0.18110   0.57364   0.78412   0.00000  Uiso   1.00
H291   H     0.18678   0.49490   0.71098   0.00000  Uiso   1.00
H292   H     0.12934   0.51585   0.72767   0.00000  Uiso   1.00
H293   H     0.12517   0.56570   0.77353   0.00000  Uiso   1.00
H294   H     0.23730   0.57229   0.78993   0.00000  Uiso   1.00
H295   H     0.24941   0.49066   0.73319   0.00000  Uiso   1.00
C296   C     0.29387   0.52768   0.57863   0.00000  Uiso   1.00
C297   C     0.29525   0.50939   0.61267   0.00000  Uiso   1.00
H298   H     0.30216   0.50960   0.68390   0.00000  Uiso   1.00
H299   H     0.24774   0.53074   0.63317   0.00000  Uiso   1.00
H300   H     0.28836   0.55865   0.64512   0.00000  Uiso   1.00
H301   H     0.25897   0.48546   0.67315   0.00000  Uiso   1.00
H302   H     0.27243   0.53141   0.75434   0.00000  Uiso   1.00
H303   H     0.26577   0.52658   0.57096   0.00000  Uiso   1.00
H304   H     0.30550   0.55668   0.58278   0.00000  Uiso   1.00
N305   N     0.31406   0.50908   0.55127   0.00000  Uiso   1.00
N306   N     0.25884   0.53704   0.70240   0.00000  Uiso   1.00
C307   C     0.15084   0.55719   0.76643   0.00000  Uiso   1.00
C308   C     0.17789   0.49872   1.00026   0.00000  Uiso   1.00
C309   C     0.14377   0.48512   1.01076   0.00000  Uiso   1.00
C310   C     0.11425   0.49554   0.99523   0.00000  Uiso   1.00
C311   C     0.11836   0.51958   0.96888   0.00000  Uiso   1.00
C312   C     0.15208   0.53410   0.95799   0.00000  Uiso   1.00
C313   C     0.18207   0.52347   0.97378   0.00000  Uiso   1.00
C314   C     0.20885   0.48659   0.01822   0.00000  Uiso   1.00
H315   H     0.14010   0.46629   0.03108   0.00000  Uiso   1.00
H316   H     0.08804   0.48513   1.00383   0.00000  Uiso   1.00
H317   H     0.09500   0.52791   0.95785   0.00000  Uiso   1.00
H318   H     0.20830   0.53464   0.96586   0.00000  Uiso   1.00
H319   H     0.20484   0.45619   0.01803   0.00000  Uiso   1.00
H320   H     0.23410   0.49407   0.00412   0.00000  Uiso   1.00
C321   C     0.31614   0.49918   0.24400   0.00000  Uiso   1.00
C322   C     0.31750   0.47320   0.26829   0.00000  Uiso   1.00
C323   C     0.28135   0.50694   0.23098   0.00000  Uiso   1.00
C324   C     0.25770   0.50674   0.17302   0.00000  Uiso   1.00
C325   C     0.25107   0.48314   0.13884   0.00000  Uiso   1.00
C326   C     0.34763   0.51575   0.22980   0.00000  Uiso   1.00
C327   C     0.38018   0.50655   0.23994   0.00000  Uiso   1.00
C328   C     0.35005   0.46320   0.27776   0.00000  Uiso   1.00
H329   H     0.34688   0.53547   0.21063   0.00000  Uiso   1.00
H330   H     0.40441   0.51951   0.22911   0.00000  Uiso   1.00
H331   H     0.40692   0.47320   0.27129   0.00000  Uiso   1.00
H332   H     0.29326   0.45997   0.27903   0.00000  Uiso   1.00
H333   H     0.28185   0.53697   0.22960   0.00000  Uiso   1.00
C334   C     0.22775   0.48198   0.07753   0.00000  Uiso   1.00
C335   C     0.23429   0.50434   0.11242   0.00000  Uiso   1.00
H336   H     0.23214   0.51389   0.18467   0.00000  Uiso   1.00
H337   H     0.27658   0.47489   0.12810   0.00000  Uiso   1.00
H338   H     0.23320   0.45818   0.14403   0.00000  Uiso   1.00
H339   H     0.27492   0.53216   0.16772   0.00000  Uiso   1.00
H340   H     0.25957   0.49808   0.24926   0.00000  Uiso   1.00
H341   H     0.25340   0.47467   0.06623   0.00000  Uiso   1.00
H342   H     0.21006   0.45665   0.08204   0.00000  Uiso   1.00
N343   N     0.21080   0.50380   0.05409   0.00000  Uiso   1.00
N344   N     0.27533   0.48633   0.19704   0.00000  Uiso   1.00
C345   C     0.38146   0.48019   0.26371   0.00000  Uiso   1.00
C346   C     0.24758   0.25604   0.42404   0.00000  Uiso   1.00
C347   C     0.24404   0.23770   0.39054   0.00000  Uiso   1.00
C348   C     0.26552   0.24960   0.36289   0.00000  Uiso   1.00
C349   C     0.29034   0.28019   0.36823   0.00000  Uiso   1.00
C350   C     0.29442   0.29903   0.40146   0.00000  Uiso   1.00
C351   C     0.27326   0.28662   0.42957   0.00000  Uiso   1.00
C352   C     0.22432   0.24202   0.45343   0.00000  Uiso   1.00
H353   H     0.22489   0.21385   0.38593   0.00000  Uiso   1.00
H354   H     0.26302   0.23498   0.33727   0.00000  Uiso   1.00
H355   H     0.30688   0.28891   0.34642   0.00000  Uiso   1.00
H356   H     0.27623   0.30093   0.45528   0.00000  Uiso   1.00
H357   H     0.22323   0.21163   0.45165   0.00000  Uiso   1.00
H358   H     0.23572   0.25264   0.47915   0.00000  Uiso   1.00
C359   C     0.98128   0.21302   0.53814   0.00000  Uiso   1.00
C360   C     0.95219   0.18529   0.53779   0.00000  Uiso   1.00
C361   C     0.00070   0.22390   0.50541   0.00000  Uiso   1.00
C362   C     0.06332   0.23815   0.49126   0.00000  Uiso   1.00
C363   C     0.09899   0.22280   0.49103   0.00000  Uiso   1.00
C364   C     0.99428   0.22980   0.57014   0.00000  Uiso   1.00
C365   C     0.97972   0.21863   0.60143   0.00000  Uiso   1.00
C366   C     0.93732   0.17414   0.56967   0.00000  Uiso   1.00
H367   H     0.01665   0.25073   0.57084   0.00000  Uiso   1.00
H368   H     0.99077   0.23050   0.62608   0.00000  Uiso   1.00
H369   H     0.94345   0.18092   0.62571   0.00000  Uiso   1.00
H370   H     0.94250   0.17160   0.51330   0.00000  Uiso   1.00
H371   H     0.00181   0.25414   0.50507   0.00000  Uiso   1.00
C372   C     0.16343   0.23195   0.47245   0.00000  Uiso   1.00
C373   C     0.12774   0.24718   0.47276   0.00000  Uiso   1.00
H374   H     0.05652   0.24307   0.46416   0.00000  Uiso   1.00
H375   H     0.10679   0.22047   0.51843   0.00000  Uiso   1.00
H376   H     0.09625   0.19509   0.47705   0.00000  Uiso   1.00
H377   H     0.06521   0.26442   0.50790   0.00000  Uiso   1.00
H378   H     0.98655   0.21115   0.48178   0.00000  Uiso   1.00
H379   H     0.17292   0.23325   0.49977   0.00000  Uiso   1.00
H380   H     0.16008   0.20301   0.46136   0.00000  Uiso   1.00
N381   N     0.18885   0.25332   0.45079   0.00000  Uiso   1.00
N382   N     0.03612   0.21184   0.50551   0.00000  Uiso   1.00
C383   C     0.95207   0.19079   0.60109   0.00000  Uiso   1.00
C384   C     1.00621   0.01384   0.70332   0.00000  Uiso   1.00
C385   C     0.04060   0.02844   0.69452   0.00000  Uiso   1.00
C386   C     0.04592   0.05577   0.67121   0.00000  Uiso   1.00
C387   C     1.01700   0.06868   0.65661   0.00000  Uiso   1.00
C388   C     0.98274   0.05344   0.66460   0.00000  Uiso   1.00
C389   C     0.97737   0.02605   0.68780   0.00000  Uiso   1.00
C390   C     0.00040   0.98546   0.72913   0.00000  Uiso   1.00
H391   H     0.06317   0.01891   0.70598   0.00000  Uiso   1.00
H392   H     0.07243   0.06712   0.66463   0.00000  Uiso   1.00
H393   H     1.02127   0.09015   0.63888   0.00000  Uiso   1.00
H394   H     0.95069   1.01495   0.69439   0.00000  Uiso   1.00
H395   H     0.01678   0.99462   0.75252   0.00000  Uiso   1.00
H396   H     0.97222   0.98192   0.73776   0.00000  Uiso   1.00
C397   C     0.02401   0.72917   0.75699   0.00000  Uiso   1.00
C398   C     0.05251   0.71317   0.77001   0.00000  Uiso   1.00
C399   C     0.02969   0.75897   0.73211   0.00000  Uiso   1.00
C400   C     0.01751   0.82076   0.72514   0.00000  Uiso   1.00
C401   C     0.01752   0.85826   0.74491   0.00000  Uiso   1.00
C402   C     0.98950   0.71738   0.76768   0.00000  Uiso   1.00
C403   C     0.98328   0.68970   0.79039   0.00000  Uiso   1.00
C404   C     0.04652   0.68502   0.79302   0.00000  Uiso   1.00
H405   H     0.96739   0.72990   0.75851   0.00000  Uiso   1.00
H406   H     0.95644   0.68132   0.79877   0.00000  Uiso   1.00
H407   H     0.00583   0.65270   0.82113   0.00000  Uiso   1.00
H408   H     0.07922   0.72283   0.76242   0.00000  Uiso   1.00
H409   H     1.01231   0.75121   0.70910   0.00000  Uiso   1.00
C410   C     0.01026   0.92418   0.73851   0.00000  Uiso   1.00
C411   C     0.01360   0.88699   0.71945   0.00000  Uiso   1.00
H412   H     0.03969   0.82172   0.70571   0.00000  Uiso   1.00
H413   H     0.99533   0.85763   0.76426   0.00000  Uiso   1.00
H414   H     0.04285   0.86541   0.75893   0.00000  Uiso   1.00
H415   H     0.99213   0.81368   0.71112   0.00000  Uiso   1.00
H416   H     0.05749   0.76227   0.72247   0.00000  Uiso   1.00
H417   H     0.98530   0.92259   0.75425   0.00000  Uiso   1.00
H418   H     0.03315   0.93215   0.75603   0.00000  Uiso   1.00
N419   N     0.00998   0.95087   0.71261   0.00000  Uiso   1.00
N420   N     0.02127   0.79353   0.75007   0.00000  Uiso   1.00
C421   C     0.01147   0.67340   0.80279   0.00000  Uiso   1.00
C422   C     0.03463   0.48715   0.83153   0.00000  Uiso   1.00
C423   C     0.05889   0.46292   0.83889   0.00000  Uiso   1.00
C424   C     0.09426   0.47558   0.84422   0.00000  Uiso   1.00
C425   C     0.10506   0.51269   0.84396   0.00000  Uiso   1.00
C426   C     0.08015   0.53760   0.84177   0.00000  Uiso   1.00
C427   C     0.04530   0.52498   0.83337   0.00000  Uiso   1.00
C428   C    -0.00259   0.47200   0.82307   0.00000  Uiso   1.00
H429   H     0.05047   0.43422   0.84084   0.00000  Uiso   1.00
H430   H     0.11304   0.45697   0.84981   0.00000  Uiso   1.00
H431   H     0.13261   0.52275   0.84800   0.00000  Uiso   1.00
H432   H     0.02650   0.54414   0.82978   0.00000  Uiso   1.00
H433   H    -0.01447   0.45769   0.84573   0.00000  Uiso   1.00
H434   H    -0.01890   0.49422   0.81895   0.00000  Uiso   1.00
C435   C     0.94208   0.25616   0.69092   0.00000  Uiso   1.00
C436   C     0.92673   0.21975   0.68773   0.00000  Uiso   1.00
C437   C     0.97938   0.26515   0.70305   0.00000  Uiso   1.00
C438   C     0.99474   0.32373   0.73547   0.00000  Uiso   1.00
C439   C     0.98106   0.34678   0.76632   0.00000  Uiso   1.00
C440   C     0.92268   0.28395   0.68171   0.00000  Uiso   1.00
C441   C     0.88823   0.27545   0.66984   0.00000  Uiso   1.00
C442   C     0.89280   0.21083   0.67415   0.00000  Uiso   1.00
H443   H     0.93428   0.31212   0.68322   0.00000  Uiso   1.00
H444   H     0.87351   0.29690   0.66232   0.00000  Uiso   1.00
H445   H     0.84718   0.23321   0.65500   0.00000  Uiso   1.00
H446   H     0.94199   0.19821   0.69390   0.00000  Uiso   1.00
H447   H     0.99541   0.27986   0.68284   0.00000  Uiso   1.00
C448   C    -0.01355   0.40986   0.79672   0.00000  Uiso   1.00
C449   C    -0.00298   0.38621   0.76488   0.00000  Uiso   1.00
H450   H     0.02396   0.32490   0.73648   0.00000  Uiso   1.00
H451   H     0.95184   0.34549   0.76489   0.00000  Uiso   1.00
H452   H     0.98816   0.33608   0.79116   0.00000  Uiso   1.00
H453   H     0.98744   0.33505   0.71098   0.00000  Uiso   1.00
H454   H     0.99172   0.23980   0.70601   0.00000  Uiso   1.00
H455   H     0.95734   0.40612   0.80072   0.00000  Uiso   1.00
H456   H    -0.00051   0.40151   0.81995   0.00000  Uiso   1.00
N457   N    -0.00241   0.44800   0.79071   0.00000  Uiso   1.00
N458   N     0.97926   0.28588   0.73722   0.00000  Uiso   1.00
C459   C     0.87327   0.23915   0.66610   0.00000  Uiso   1.00
C460   C     0.75727   0.78615   0.98402   0.00000  Uiso   1.00
C461   C     0.73565   0.76019   0.96310   0.00000  Uiso   1.00
C462   C     0.70012   0.75178   0.97203   0.00000  Uiso   1.00
C463   C     0.68598   0.76884   0.00212   0.00000  Uiso   1.00
C464   C     0.70699   0.79547   0.02294   0.00000  Uiso   1.00
C465   C     0.74257   0.80440   0.01348   0.00000  Uiso   1.00
C466   C     0.79602   0.79313   0.97547   0.00000  Uiso   1.00
H467   H     0.74650   0.74606   0.94019   0.00000  Uiso   1.00
H468   H     0.68367   0.73146   0.95598   0.00000  Uiso   1.00
H469   H     0.65872   0.76101   0.00925   0.00000  Uiso   1.00
H470   H     0.75916   0.82437   0.02981   0.00000  Uiso   1.00
H471   H     0.79921   0.80067   0.94800   0.00000  Uiso   1.00
H472   H     0.80870   0.81620   0.99296   0.00000  Uiso   1.00
C473   C     0.01564   0.68135   0.97700   0.00000  Uiso   1.00
C474   C     0.03903   0.66661   0.95237   0.00000  Uiso   1.00
C475   C     0.97634   0.67202   0.97371   0.00000  Uiso   1.00
C476   C     0.92220   0.70016   0.97509   0.00000  Uiso   1.00
C477   C     0.90596   0.73402   0.96607   0.00000  Uiso   1.00
C478   C     0.02931   0.70538   1.00492   0.00000  Uiso   1.00
C479   C     0.06578   0.71344   1.00885   0.00000  Uiso   1.00
C480   C     0.07564   0.67565   0.95584   0.00000  Uiso   1.00
H481   H     0.01166   0.71804   0.02349   0.00000  Uiso   1.00
H482   H     0.07617   0.73209   0.03031   0.00000  Uiso   1.00
H483   H     0.11708   0.70482   0.98782   0.00000  Uiso   1.00
H484   H     0.02886   0.64797   0.93071   0.00000  Uiso   1.00
H485   H     0.96595   0.66035  -0.00173   0.00000  Uiso   1.00
C486   C     0.84995   0.76486   0.96912   0.00000  Uiso   1.00
C487   C     0.86686   0.73088   0.97640   0.00000  Uiso   1.00
H488   H     0.90954   0.67580   0.95921   0.00000  Uiso   1.00
H489   H     0.92004   0.75862   0.98038   0.00000  Uiso   1.00
H490   H     0.90888   0.73679   0.93749   0.00000  Uiso   1.00
H491   H     0.91750   0.69634   0.00336   0.00000  Uiso   1.00
H492   H     0.96989   0.65111   0.95156   0.00000  Uiso   1.00
H493   H     0.86399   0.78905   0.98412   0.00000  Uiso   1.00
H494   H     0.85210   0.76856   0.94065   0.00000  Uiso   1.00
N495   N     0.81279   0.76008   0.97989   0.00000  Uiso   1.00
N496   N     0.96022   0.70507   0.96778   0.00000  Uiso   1.00
C497   C     0.08892   0.69819   0.98466   0.00000  Uiso   1.00
C498   C     0.53365   0.75161   0.17765   0.00000  Uiso   1.00
C499   C     0.50221   0.76469   0.16886   0.00000  Uiso   1.00
C500   C     0.50246   0.80078   0.16040   0.00000  Uiso   1.00
C501   C     0.53412   0.82393   0.16005   0.00000  Uiso   1.00
C502   C     0.56597   0.81119   0.16815   0.00000  Uiso   1.00
C503   C     0.56527   0.77511   0.17759   0.00000  Uiso   1.00
C504   C     0.53409   0.71207   0.18415   0.00000  Uiso   1.00
H505   H     0.47767   0.74674   0.16787   0.00000  Uiso   1.00
H506   H     0.47820   0.81048   0.15298   0.00000  Uiso   1.00
H507   H     0.53372   0.85089   0.15159   0.00000  Uiso   1.00
H508   H     0.58973   0.76477   0.18358   0.00000  Uiso   1.00
H509   H     0.52458   0.69493   0.16033   0.00000  Uiso   1.00
H510   H     0.56158   0.70648   0.18897   0.00000  Uiso   1.00
C511   C     0.46645   0.53062   0.35117   0.00000  Uiso   1.00
C512   C     0.44466   0.49801   0.35532   0.00000  Uiso   1.00
C513   C     0.45309   0.56055   0.33254   0.00000  Uiso   1.00
C514   C     0.46915   0.60585   0.29179   0.00000  Uiso   1.00
C515   C     0.49464   0.61651   0.26225   0.00000  Uiso   1.00
C516   C     0.49957   0.53619   0.36704   0.00000  Uiso   1.00
C517   C     0.51038   0.50974   0.38721   0.00000  Uiso   1.00
C518   C     0.45493   0.47153   0.37634   0.00000  Uiso   1.00
H519   H     0.51677   0.56125   0.36418   0.00000  Uiso   1.00
H520   H     0.53594   0.51443   0.39946   0.00000  Uiso   1.00
H521   H     0.49660   0.45806   0.40863   0.00000  Uiso   1.00
H522   H     0.41888   0.49416   0.34341   0.00000  Uiso   1.00
H523   H     0.45040   0.58397   0.35221   0.00000  Uiso   1.00
C524   C     0.51600   0.66591   0.22310   0.00000  Uiso   1.00
C525   C     0.48928   0.65430   0.25129   0.00000  Uiso   1.00
H526   H     0.44163   0.60257   0.28198   0.00000  Uiso   1.00
H527   H     0.52217   0.61688   0.27131   0.00000  Uiso   1.00
H528   H     0.49020   0.59596   0.23949   0.00000  Uiso   1.00
H529   H     0.47185   0.62793   0.31345   0.00000  Uiso   1.00
H530   H     0.42663   0.55140   0.32128   0.00000  Uiso   1.00
H531   H     0.54308   0.66581   0.23323   0.00000  Uiso   1.00
H532   H     0.51206   0.64606   0.19972   0.00000  Uiso   1.00
N533   N     0.51126   0.70273   0.21409   0.00000  Uiso   1.00
N534   N     0.47761   0.57156   0.30442   0.00000  Uiso   1.00
C535   C     0.48805   0.47774   0.39225   0.00000  Uiso   1.00
loop_
_geom_bond_atom_site_label_1
_geom_bond_atom_site_label_2
_geom_bond_distance
_geom_bond_site_symmetry_2
_ccdc_geom_bond_type
Gd0    O3      2.241   .     S
Gd0    O4      2.238   .     S
Gd0    O6      2.266   .     S
Gd0    O7      2.287   .     S
Gd0    O8      2.257   .     S
Gd0    O11     2.214   .     S
Gd1    O2      2.200   .     S
Gd1    O5      2.236   .     S
Gd1    O10     2.187   .     S
Gd1    O13     2.229   .     S
Gd1    O14     2.264   .     S
Gd1    O15     2.269   .     S
O2     C16     1.275   .     A
O3     C16     1.275   .     A
O4     C12     1.283   .     A
O5     C12     1.278   .     A
O6     C9      1.256   .     A
O7     C9      1.268   .     A
O8     C19     1.273   .     A
C9     C404    1.494   .     S
O10    C19     1.259   .     A
O11    C18     1.271   .     A
C12    C290    1.477   .     S
O13    C18     1.274   .     A
O14    C17     1.271   .     A
O15    C17     1.261   .     A
C16    C426    1.451   .     S
C17    C312    1.486   .     S
C18    C480    1.461   .     S
C19    C100    1.462   .     S
Gd20   O23     2.245   .     S
Gd20   O24     2.270   .     S
Gd20   O26     2.212   .     S
Gd20   O27     2.205   .     S
Gd20   O28     2.275   .     S
Gd20   O31     2.342   .     S
Gd21   O22     2.284   .     S
Gd21   O25     2.275   .     S
Gd21   O30     2.264   .     S
Gd21   O33     2.262   .     S
Gd21   O34     2.236   .     S
Gd21   O35     2.201   .     S
O22    C36     1.274   .     A
O23    C36     1.274   .     A
O24    C32     1.272   .     A
O25    C32     1.289   .     A
O26    C29     1.282   .     A
O27    C29     1.282   .     A
O28    C39     1.266   .     A
C29    C464    1.474   .     S
O30    C39     1.285   .     A
O31    C38     1.305   .     A
C32    C502    1.481   .     S
O33    C38     1.284   .     A
O34    C37     1.279   .     A
O35    C37     1.271   .     A
C36    C84     1.474   .     S
C37    C138    1.465   .     S
C38    C214    1.473   .     S
C39    C252    1.481   .     S
Gd40   O43     2.270   .     S
Gd40   O44     2.185   .     S
Gd40   O46     2.271   .     S
Gd40   O47     2.267   .     S
Gd40   O48     2.239   .     S
Gd40   O51     2.181   .     S
Gd41   O42     2.169   .     S
Gd41   O45     2.319   .     S
Gd41   O50     2.231   .     S
Gd41   O53     2.275   .     S
Gd41   O54     2.228   .     S
Gd41   O55     2.235   .     S
O42    C56     1.260   .     A
O43    C56     1.283   .     A
O44    C52     1.255   .     A
O45    C52     1.288   .     A
O46    C49     1.240   .     A
O47    C49     1.237   .     A
O48    C59     1.273   .     A
C49    C388    1.454   .     S
O50    C59     1.270   .     A
O51    C58     1.258   .     A
C52    C366    1.483   .     S
O53    C58     1.277   .     A
O54    C57     1.274   .     A
O55    C57     1.269   .     A
C56    C442    1.474   .     S
C57    C160    1.467   .     S
C58    C198    1.483   .     S
C59    C236    1.486   .     S
Gd60   O63     2.250   .     S
Gd60   O64     2.284   .     S
Gd60   O66     2.204   .     S
Gd60   O67     2.207   .     S
Gd60   O68     2.223   .     S
Gd60   O71     2.282   .     S
Gd61   O62     2.224   .     S
Gd61   O65     2.211   .     S
Gd61   O70     2.235   .     S
Gd61   O73     2.237   .     S
Gd61   O74     2.205   .     S
Gd61   O75     2.198   .     S
O62    C76     1.253   .     A
O63    C76     1.261   .     A
O64    C72     1.294   .     A
O65    C72     1.286   .     A
O66    C69     1.278   .     A
O67    C69     1.281   .     A
O68    C79     1.265   .     A
C69    C328    1.465   .     S
O70    C79     1.270   .     A
O71    C78     1.292   .     A
C72    C350    1.475   .     S
O73    C78     1.287   .     A
O74    C77     1.280   .     A
O75    C77     1.279   .     A
C76    C274    1.475   .     S
C77    C176    1.460   .     S
C78    C518    1.484   .     S
C79    C122    1.475   .     S
C80    C85     1.408   .     A
C80    C86     1.505   .     S
C80    C81     1.403   1_554 A
C81    H87     1.083   .     S
C81    C80     1.403   1_556 A
C81    C82     1.396   1_556 A
C82    C83     1.397   .     A
C82    C81     1.396   1_554 A
C82    H88     1.083   1_554 S
C83    C84     1.403   .     A
C83    H89     1.082   .     S
C84    C85     1.407   .     A
C85    H90     1.084   .     S
C86    H92     1.113   .     S
C86    H91     1.113   1_554 S
C86    N115    1.465   1_554 S
H88    C82     1.083   1_556 S
H91    C86     1.113   1_556 S
C93    C94     1.410   .     A
C93    C95     1.499   .     S
C93    C98     1.406   .     A
C94    C100    1.403   .     A
C94    H104    1.084   .     S
C95    H105    1.113   .     S
C95    H112    1.111   .     S
C95    N116    1.464   .     S
C96    C97     1.525   .     S
C96    H108    1.113   .     S
C96    H111    1.113   .     S
C96    N116    1.462   .     S
C97    C107    1.528   .     S
C97    H109    1.112   .     S
C97    H110    1.112   .     S
C98    C99     1.392   .     A
C98    H101    1.082   .     S
C99    H102    1.082   .     S
C99    C117    1.390   .     A
C100   C117    1.404   .     A
H103   C117    1.083   .     S
C106   C107    1.524   .     S
C106   H114    1.112   .     S
C106   N115    1.463   .     S
C106   H113    1.113   1_556 S
H113   C106    1.113   1_554 S
N115   C86     1.465   1_556 S
C118   C119    1.404   .     A
C118   C123    1.405   .     A
C118   C124    1.507   .     S
C119   C120    1.397   .     A
C119   H125    1.083   .     S
C120   C121    1.397   .     A
C120   H126    1.082   .     S
C121   C122    1.405   .     A
C121   H127    1.079   .     S
C122   C123    1.404   .     A
C123   H128    1.085   .     S
C124   H129    1.113   .     S
C124   H130    1.113   .     S
C124   N153    1.466   .     S
C131   C133    1.506   .     S
C131   C136    1.404   .     A
C131   C132    1.407   1_545 A
C132   C138    1.405   .     A
C132   H142    1.084   .     S
C132   C131    1.407   1_565 A
C133   H143    1.113   .     S
C133   H150    1.112   .     S
C133   N154    1.467   .     S
C134   C135    1.529   .     S
C134   H146    1.114   .     S
C134   H149    1.112   .     S
C134   N154    1.466   .     S
C135   C145    1.531   .     S
C135   H147    1.112   .     S
C135   H148    1.112   .     S
C136   H139    1.083   .     S
C136   C137    1.398   1_545 A
C137   H140    1.082   .     S
C137   C155    1.397   .     A
C137   C136    1.398   1_565 A
C138   C155    1.401   .     A
H141   C155    1.084   .     S
C144   C145    1.526   .     S
C144   H151    1.112   .     S
C144   H152    1.113   .     S
C144   N153    1.465   .     S
C156   C157    1.404   .     A
C156   C161    1.402   .     A
C156   C162    1.497   .     S
C157   C158    1.395   .     A
C157   H163    1.083   .     S
C158   C159    1.395   .     A
C158   H164    1.082   .     S
C159   C160    1.405   .     A
C159   H165    1.083   .     S
C160   C161    1.401   .     A
C161   H166    1.084   .     S
C162   H167    1.112   .     S
C162   H168    1.113   .     S
C162   N191    1.461   .     S
C169   C170    1.398   .     A
C169   C171    1.496   .     S
C169   C174    1.404   .     A
C170   C176    1.401   .     A
C170   H180    1.086   .     S
C171   H181    1.113   .     S
C171   H188    1.113   .     S
C171   N192    1.458   .     S
C172   C173    1.517   .     S
C172   H184    1.113   .     S
C172   H187    1.114   .     S
C172   N192    1.458   .     S
C173   C183    1.519   .     S
C173   H185    1.113   .     S
C173   H186    1.112   .     S
C174   C175    1.398   .     A
C174   H177    1.081   .     S
C175   H178    1.081   .     S
C175   C193    1.395   .     A
C176   C193    1.400   .     A
H179   C193    1.083   .     S
C182   C183    1.516   .     S
C182   H189    1.113   .     S
C182   H190    1.113   .     S
C182   N191    1.457   .     S
C194   C195    1.404   .     A
C194   C199    1.417   .     A
C194   C200    1.500   .     S
C195   C196    1.387   .     A
C195   H201    1.083   .     S
C196   C197    1.388   .     A
C196   H202    1.083   .     S
C197   C198    1.413   .     A
C197   H203    1.085   .     S
C198   C199    1.407   .     A
C199   H204    1.082   .     S
C200   H205    1.115   .     S
C200   H206    1.109   .     S
C200   N229    1.468   .     S
C207   C209    1.501   .     S
C207   C212    1.404   .     A
C207   C208    1.408   1_556 A
C208   C214    1.407   .     A
C208   H218    1.084   .     S
C208   C207    1.408   1_554 A
C209   H219    1.114   .     S
C209   H226    1.111   .     S
C209   N230    1.464   .     S
C210   C211    1.526   .     S
C210   H222    1.112   .     S
C210   H225    1.114   .     S
C210   N230    1.462   .     S
C211   C221    1.526   .     S
C211   H223    1.113   1_565 S
C211   H224    1.112   1_565 S
C212   H215    1.083   .     S
C212   C213    1.393   1_556 A
C213   H216    1.082   .     S
C213   C231    1.393   .     A
C213   C212    1.393   1_554 A
C214   C231    1.406   .     A
H217   C231    1.084   .     S
C220   H227    1.113   .     S
C220   H228    1.113   .     S
C220   N229    1.462   .     S
C220   C221    1.524   1_545 S
C221   C220    1.524   1_565 S
H223   C211    1.113   1_545 S
H224   C211    1.112   1_545 S
C232   C233    1.402   .     A
C232   C238    1.509   .     S
C232   C237    1.405   1_565 A
C233   C234    1.399   .     A
C233   H239    1.084   .     S
C234   H240    1.083   .     S
C234   C235    1.401   1_565 A
C235   C236    1.405   .     A
C235   H241    1.083   .     S
C235   C234    1.401   1_545 A
C236   C237    1.412   .     A
C237   H242    1.083   .     S
C237   C232    1.405   1_545 A
C238   H243    1.113   .     S
C238   H244    1.113   .     S
C238   N267    1.466   .     S
C245   C246    1.406   .     A
C245   C247    1.508   .     S
C245   C250    1.402   .     A
C246   C252    1.409   .     A
C246   H256    1.084   .     S
C247   H264    1.112   .     S
C247   N268    1.467   .     S
C247   H257    1.114   1_565 S
C248   C249    1.528   .     S
C248   H260    1.115   .     S
C248   N268    1.470   .     S
C248   H263    1.112   1_565 S
C249   C259    1.532   .     S
C249   H261    1.112   .     S
C249   H262    1.112   .     S
C250   C251    1.399   .     A
C250   H253    1.084   1_565 S
C251   C269    1.401   .     A
C251   H254    1.082   1_565 S
C252   C269    1.402   .     A
H253   C250    1.084   1_545 S
H254   C251    1.082   1_545 S
H255   C269    1.081   .     S
H257   C247    1.114   1_545 S
C258   C259    1.524   .     S
C258   H265    1.114   .     S
C258   H266    1.112   .     S
C258   N267    1.466   .     S
H263   C248    1.112   1_545 S
C270   C271    1.403   .     A
C270   C275    1.408   .     A
C270   C276    1.497   .     S
C271   C272    1.393   .     A
C271   H277    1.085   .     S
C272   C273    1.396   .     A
C272   H278    1.084   .     S
C273   C274    1.406   .     A
C273   H279    1.075   .     S
C274   C275    1.403   .     A
C275   H280    1.083   .     S
C276   H281    1.116   .     S
C276   H282    1.112   .     S
C276   N305    1.465   .     S
C283   C284    1.414   .     A
C283   C285    1.503   .     S
C283   C288    1.403   .     A
C284   C290    1.411   .     A
C284   H294    1.083   .     S
C285   H295    1.115   .     S
C285   H302    1.110   .     S
C285   N306    1.464   .     S
C286   C287    1.524   .     S
C286   H298    1.112   .     S
C286   H301    1.114   .     S
C286   N306    1.463   .     S
C287   C297    1.525   .     S
C287   H299    1.113   .     S
C287   H300    1.112   .     S
C288   C289    1.392   .     A
C288   H291    1.083   .     S
C289   H292    1.082   .     S
C289   C307    1.393   .     A
C290   C307    1.404   .     A
H293   C307    1.084   .     S
C296   C297    1.524   .     S
C296   H303    1.114   .     S
C296   H304    1.113   .     S
C296   N305    1.460   .     S
C308   C309    1.403   .     A
C308   C313    1.417   .     A
C308   C314    1.510   1_556 S
C309   C310    1.393   .     A
C309   H315    1.084   1_556 S
C310   C311    1.395   .     A
C310   H316    1.083   .     S
C311   C312    1.404   .     A
C311   H317    1.082   .     S
C312   C313    1.416   .     A
C313   H318    1.084   .     S
C314   H319    1.116   .     S
C314   H320    1.112   .     S
C314   N343    1.468   .     S
C314   C308    1.510   1_554 S
H315   C309    1.084   1_554 S
C321   C322    1.398   .     A
C321   C323    1.495   .     S
C321   C326    1.404   .     A
C322   C328    1.399   .     A
C322   H332    1.084   .     S
C323   H333    1.113   .     S
C323   H340    1.112   .     S
C323   N344    1.463   .     S
C324   C325    1.524   .     S
C324   H336    1.113   .     S
C324   H339    1.113   .     S
C324   N344    1.460   .     S
C325   C335    1.526   .     S
C325   H337    1.112   .     S
C325   H338    1.112   .     S
C326   C327    1.396   .     A
C326   H329    1.081   .     S
C327   H330    1.082   .     S
C327   C345    1.394   .     A
C328   C345    1.405   .     A
H331   C345    1.085   .     S
C334   C335    1.524   .     S
C334   H341    1.113   .     S
C334   H342    1.113   .     S
C334   N343    1.464   .     S
C346   C347    1.405   .     A
C346   C351    1.414   .     A
C346   C352    1.507   .     S
C347   C348    1.394   .     A
C347   H353    1.084   .     S
C348   C349    1.394   .     A
C348   H354    1.083   .     S
C349   C350    1.405   .     A
C349   H355    1.084   .     S
C350   C351    1.408   .     A
C351   H356    1.082   .     S
C352   H357    1.116   .     S
C352   H358    1.111   .     S
C352   N381    1.469   .     S
C359   C360    1.421   .     A
C359   C364    1.404   .     A
C359   C361    1.503   1_655 S
C360   C366    1.409   .     A
C360   H370    1.082   .     S
C361   H371    1.115   .     S
C361   N382    1.470   .     S
C361   C359    1.503   1_455 S
C361   H378    1.109   1_455 S
C362   C363    1.532   .     S
C362   H374    1.112   .     S
C362   H377    1.113   .     S
C362   N382    1.467   .     S
C363   C373    1.533   .     S
C363   H375    1.112   .     S
C363   H376    1.111   .     S
C364   C365    1.385   .     A
C364   H367    1.084   1_655 S
C365   H368    1.083   .     S
C365   C383    1.387   .     A
C366   C383    1.407   .     A
H367   C364    1.084   1_455 S
H369   C383    1.072   .     S
C372   C373    1.530   .     S
C372   H379    1.113   .     S
C372   H380    1.113   .     S
C372   N381    1.466   .     S
H378   C361    1.109   1_655 S
C384   C389    1.399   .     A
C384   C385    1.404   1_655 A
C384   C390    1.496   1_645 S
C385   C386    1.398   .     A
C385   H391    1.083   .     S
C385   C384    1.404   1_455 A
C386   H392    1.082   .     S
C386   C387    1.397   1_455 A
C387   C388    1.400   .     A
C387   H393    1.083   .     S
C387   C386    1.397   1_655 A
C388   C389    1.397   .     A
C389   H394    1.085   1_545 S
C390   H395    1.113   .     S
C390   N419    1.460   .     S
C390   C384    1.496   1_465 S
C390   H396    1.114   1_455 S
H394   C389    1.085   1_565 S
H396   C390    1.114   1_655 S
C397   C398    1.415   .     A
C397   C399    1.510   .     S
C397   C402    1.401   1_455 A
C398   C404    1.415   .     A
C398   H408    1.082   .     S
C399   H416    1.112   .     S
C399   N420    1.465   .     S
C399   H409    1.115   1_455 S
C400   C401    1.524   .     S
C400   H412    1.114   .     S
C400   N420    1.465   .     S
C400   H415    1.113   1_455 S
C401   C411    1.523   .     S
C401   H414    1.112   .     S
C401   H413    1.112   1_455 S
C402   C403    1.395   .     A
C402   H405    1.086   .     S
C402   C397    1.401   1_655 A
C403   H406    1.084   .     S
C403   C421    1.402   1_655 A
C404   C421    1.408   .     A
H407   C421    1.082   .     S
H409   C399    1.115   1_655 S
C410   C411    1.520   .     S
C410   H418    1.112   .     S
C410   N419    1.458   .     S
C410   H417    1.114   1_455 S
H413   C401    1.112   1_655 S
H415   C400    1.113   1_655 S
H417   C410    1.114   1_655 S
C421   C403    1.402   1_455 A
C422   C423    1.408   .     A
C422   C427    1.407   .     A
C422   C428    1.498   .     S
C423   C424    1.391   .     A
C423   H429    1.081   .     S
C424   C425    1.387   .     A
C424   H430    1.085   .     S
C425   C426    1.405   .     A
C425   H431    1.085   .     S
C426   C427    1.394   .     A
C427   H432    1.082   .     S
C428   H433    1.115   .     S
C428   H434    1.109   .     S
C428   N457    1.466   .     S
C435   C436    1.402   .     A
C435   C437    1.500   .     S
C435   C440    1.405   .     A
C436   C442    1.401   .     A
C436   H446    1.083   .     S
C437   H447    1.114   .     S
C437   H454    1.110   .     S
C437   N458    1.463   .     S
C438   C439    1.518   .     S
C438   H453    1.113   .     S
C438   N458    1.462   .     S
C438   H450    1.112   1_655 S
C439   H451    1.113   .     S
C439   H452    1.112   .     S
C439   C449    1.519   1_655 S
C440   C441    1.394   .     A
C440   H443    1.082   .     S
C441   H444    1.083   .     S
C441   C459    1.394   .     A
C442   C459    1.410   .     A
H445   C459    1.084   .     S
C448   C449    1.516   .     S
C448   H456    1.113   .     S
C448   N457    1.461   .     S
C448   H455    1.112   1_455 S
C449   C439    1.519   1_455 S
H450   C438    1.112   1_455 S
H455   C448    1.112   1_655 S
C460   C461    1.403   .     A
C460   C466    1.504   .     S
C460   C465    1.406   1_556 A
C461   C462    1.396   .     A
C461   H467    1.083   .     S
C462   H468    1.082   .     S
C462   C463    1.396   1_556 A
C463   C464    1.404   .     A
C463   H469    1.082   .     S
C463   C462    1.396   1_554 A
C464   C465    1.406   .     A
C465   H470    1.084   .     S
C465   C460    1.406   1_554 A
C466   H471    1.113   .     S
C466   H472    1.113   .     S
C466   N495    1.465   .     S
C473   C474    1.404   .     A
C473   C478    1.404   .     A
C473   C475    1.505   1_455 S
C474   C480    1.405   .     A
C474   H484    1.085   .     S
C475   H492    1.113   .     S
C475   N496    1.465   .     S
C475   C473    1.505   1_655 S
C475   H485    1.114   1_556 S
C476   C477    1.526   .     S
C476   H488    1.113   .     S
C476   N496    1.464   .     S
C476   H491    1.113   1_556 S
C477   C487    1.528   .     S
C477   H489    1.112   .     S
C477   H490    1.112   .     S
C478   C479    1.398   .     A
C478   H481    1.083   1_556 S
C479   C497    1.395   .     A
C479   H482    1.081   1_556 S
C480   C497    1.397   .     A
H481   C478    1.083   1_554 S
H482   C479    1.081   1_554 S
H483   C497    1.081   .     S
H485   C475    1.114   1_554 S
C486   C487    1.524   .     S
C486   H493    1.113   .     S
C486   H494    1.112   .     S
C486   N495    1.462   .     S
H491   C476    1.113   1_554 S
C498   C499    1.402   .     A
C498   C503    1.403   .     A
C498   C504    1.505   .     S
C499   C500    1.397   .     A
C499   H505    1.083   .     S
C500   C501    1.399   .     A
C500   H506    1.082   .     S
C501   C502    1.402   .     A
C501   H507    1.075   .     S
C502   C503    1.408   .     A
C503   H508    1.084   .     S
C504   H509    1.112   .     S
C504   H510    1.114   .     S
C504   N533    1.465   .     S
C511   C512    1.402   .     A
C511   C513    1.507   .     S
C511   C516    1.402   .     A
C512   C518    1.412   .     A
C512   H522    1.084   .     S
C513   H523    1.113   .     S
C513   H530    1.113   .     S
C513   N534    1.464   .     S
C514   C515    1.523   .     S
C514   H526    1.114   .     S
C514   H529    1.114   .     S
C514   N534    1.466   .     S
C515   C525    1.528   .     S
C515   H527    1.112   .     S
C515   H528    1.112   .     S
C516   C517    1.399   .     A
C516   H519    1.084   .     S
C517   H520    1.082   .     S
C517   C535    1.401   .     A
C518   C535    1.403   .     A
H521   C535    1.082   .     S
C524   C525    1.522   .     S
C524   H531    1.113   .     S
C524   H532    1.113   .     S
C524   N533    1.463   .     S
