data_lcy+N173+E161
_audit_creation_date              2025-01-21
_audit_creation_method            'Materials Studio'
_symmetry_space_group_name_H-M    'P1'
_symmetry_Int_Tables_number       1
_symmetry_cell_setting            triclinic
loop_
_symmetry_equiv_pos_as_xyz
  x,y,z
_cell_length_a                    39.2082
_cell_length_b                    40.2987
_cell_length_c                    39.4017
_cell_angle_alpha                 91.2389
_cell_angle_beta                  88.3113
_cell_angle_gamma                 97.0009
loop_
_atom_site_label
_atom_site_type_symbol
_atom_site_fract_x
_atom_site_fract_y
_atom_site_fract_z
_atom_site_U_iso_or_equiv
_atom_site_adp_type
_atom_site_occupancy
Gd0    Gd    0.13260   0.63800   0.84145   0.00000  Uiso   1.00
Gd1    Gd    0.13851   0.60576   0.88766   0.00000  Uiso   1.00
O2     O     0.10238   0.56506   0.86664   0.00000  Uiso   1.00
O3     O     0.09258   0.59657   0.82357   0.00000  Uiso   1.00
O4     O     0.17229   0.61352   0.81350   0.00000  Uiso   1.00
O5     O     0.18063   0.58295   0.85745   0.00000  Uiso   1.00
O6     O     0.09619   0.67656   0.84204   0.00000  Uiso   1.00
O7     O     0.12383   0.66958   0.79636   0.00000  Uiso   1.00
O8     O     0.17385   0.67667   0.86149   0.00000  Uiso   1.00
C9     C     0.10225   0.68583   0.81172   0.00000  Uiso   1.00
O10    O     0.17523   0.64703   0.90758   0.00000  Uiso   1.00
O11    O     0.09197   0.66099   0.87212   0.00000  Uiso   1.00
C12    C     0.18721   0.59099   0.82646   0.00000  Uiso   1.00
O13    O     0.09490   0.62769   0.91477   0.00000  Uiso   1.00
O14    O     0.18060   0.57267   0.89388   0.00000  Uiso   1.00
O15    O     0.14533   0.57767   0.93455   0.00000  Uiso   1.00
C16    C     0.08752   0.56859   0.83892   0.00000  Uiso   1.00
C17    C     0.17254   0.56639   0.92474   0.00000  Uiso   1.00
C18    C     0.08092   0.65069   0.90121   0.00000  Uiso   1.00
C19    C     0.18642   0.67255   0.89043   0.00000  Uiso   1.00
Gd20   Gd    0.65087   0.83216   0.11905   0.00000  Uiso   1.00
Gd21   Gd    0.58573   0.91520   0.13251   0.00000  Uiso   1.00
O22    O     0.55993   0.87952   0.09432   0.00000  Uiso   1.00
O23    O     0.60306   0.85327   0.10240   0.00000  Uiso   1.00
O24    O     0.59538   0.83071   0.13583   0.00000  Uiso   1.00
O25    O     0.58196   0.87178   0.17039   0.00000  Uiso   1.00
O26    O     0.70121   0.81765   0.10580   0.00000  Uiso   1.00
O27    O     0.65868   0.80189   0.07224   0.00000  Uiso   1.00
O28    O     0.66441   0.86106   0.16698   0.00000  Uiso   1.00
C29    C     0.69087   0.80191   0.07864   0.00000  Uiso   1.00
O30    O     0.62843   0.89757   0.16083   0.00000  Uiso   1.00
O31    O     0.66648   0.87872   0.08914   0.00000  Uiso   1.00
C32    C     0.58422   0.84059   0.16454   0.00000  Uiso   1.00
O33    O     0.63074   0.91958   0.09530   0.00000  Uiso   1.00
O34    O     0.54553   0.92784   0.16955   0.00000  Uiso   1.00
O35    O     0.59503   0.95764   0.16910   0.00000  Uiso   1.00
C36    C     0.57646   0.85596   0.08494   0.00000  Uiso   1.00
C37    C     0.56406   0.95383   0.18067   0.00000  Uiso   1.00
C38    C     0.65636   0.90672   0.08185   0.00000  Uiso   1.00
C39    C     0.65268   0.88767   0.17700   0.00000  Uiso   1.00
Gd40   Gd    0.88925   0.09735   0.62546   0.00000  Uiso   1.00
Gd41   Gd    0.84567   0.12920   0.61936   0.00000  Uiso   1.00
O42    O     0.87025   0.16628   0.65533   0.00000  Uiso   1.00
O43    O     0.91427   0.13752   0.66068   0.00000  Uiso   1.00
O44    O     0.91695   0.12345   0.58262   0.00000  Uiso   1.00
O45    O     0.87782   0.15785   0.57854   0.00000  Uiso   1.00
O46    O     0.88876   0.05807   0.66531   0.00000  Uiso   1.00
O47    O     0.93104   0.06428   0.63069   0.00000  Uiso   1.00
O48    O     0.86315   0.06025   0.58808   0.00000  Uiso   1.00
C49    C     0.91695   0.04811   0.65550   0.00000  Uiso   1.00
O50    O     0.82217   0.09231   0.58229   0.00000  Uiso   1.00
O51    O     0.85924   0.07327   0.66959   0.00000  Uiso   1.00
C52    C     0.90723   0.14918   0.57008   0.00000  Uiso   1.00
O53    O     0.81599   0.10167   0.66135   0.00000  Uiso   1.00
O54    O     0.84114   0.16823   0.57973   0.00000  Uiso   1.00
O55    O     0.80157   0.15871   0.61671   0.00000  Uiso   1.00
C56    C     0.89993   0.16405   0.66642   0.00000  Uiso   1.00
C57    C     0.81176   0.17451   0.59049   0.00000  Uiso   1.00
C58    C     0.82956   0.08072   0.67829   0.00000  Uiso   1.00
C59    C     0.83620   0.06667   0.57330   0.00000  Uiso   1.00
Gd60   Gd    0.35654   0.38914   0.36317   0.00000  Uiso   1.00
Gd61   Gd    0.39335   0.38734   0.40665   0.00000  Uiso   1.00
O62    O     0.36896   0.42820   0.43232   0.00000  Uiso   1.00
O63    O     0.33069   0.42823   0.39248   0.00000  Uiso   1.00
O64    O     0.31858   0.35138   0.38798   0.00000  Uiso   1.00
O65    O     0.35314   0.35062   0.43129   0.00000  Uiso   1.00
O66    O     0.32555   0.38731   0.31640   0.00000  Uiso   1.00
O67    O     0.31817   0.42523   0.35155   0.00000  Uiso   1.00
O68    O     0.38019   0.34874   0.33517   0.00000  Uiso   1.00
C69    C     0.31171   0.41327   0.32221   0.00000  Uiso   1.00
O70    O     0.41431   0.34488   0.37759   0.00000  Uiso   1.00
O71    O     0.39518   0.42738   0.33978   0.00000  Uiso   1.00
C72    C     0.32462   0.34104   0.41724   0.00000  Uiso   1.00
O73    O     0.43141   0.42568   0.38110   0.00000  Uiso   1.00
O74    O     0.42907   0.38262   0.44975   0.00000  Uiso   1.00
O75    O     0.43186   0.35060   0.40704   0.00000  Uiso   1.00
C76    C     0.34197   0.43825   0.42147   0.00000  Uiso   1.00
C77    C     0.44350   0.35906   0.43612   0.00000  Uiso   1.00
C78    C     0.42325   0.43853   0.35361   0.00000  Uiso   1.00
C79    C     0.40296   0.33423   0.34879   0.00000  Uiso   1.00
H80    H     0.20689   0.67655   0.95499   0.00000  Uiso   1.00
C81    C     0.56146   0.83146   0.05989   0.00000  Uiso   1.00
C82    C     0.55230   0.84350   0.02881   0.00000  Uiso   1.00
C83    C     0.52457   0.82708   0.01098   0.00000  Uiso   1.00
C84    C     0.50542   0.79834   0.02480   0.00000  Uiso   1.00
C85    C     0.51673   0.78426   0.05439   0.00000  Uiso   1.00
C86    C     0.54504   0.80082   0.07149   0.00000  Uiso   1.00
C87    C     0.51364   0.84188   0.97886   0.00000  Uiso   1.00
C88    C     0.49693   0.75346   0.06943   0.00000  Uiso   1.00
C89    C     0.46809   0.76056   0.98898   0.00000  Uiso   1.00
C90    C     0.43592   0.75062   0.97458   0.00000  Uiso   1.00
C91    C     0.40804   0.76838   0.98350   0.00000  Uiso   1.00
C92    C     0.41247   0.79518   0.00709   0.00000  Uiso   1.00
C93    C     0.44482   0.80368   0.02140   0.00000  Uiso   1.00
C94    C     0.43104   0.72370   0.95127   0.00000  Uiso   1.00
C95    C     0.39892   0.71448   0.93710   0.00000  Uiso   1.00
C96    C     0.37101   0.73216   0.94567   0.00000  Uiso   1.00
C97    C     0.37566   0.75936   0.96878   0.00000  Uiso   1.00
C98    C     0.34797   0.77751   0.97723   0.00000  Uiso   1.00
C99    C     0.35281   0.80440   0.00059   0.00000  Uiso   1.00
C100   C     0.38464   0.81302   0.01550   0.00000  Uiso   1.00
C101   C     0.33834   0.72305   0.93211   0.00000  Uiso   1.00
C102   C     0.31596   0.76796   0.96242   0.00000  Uiso   1.00
C103   C     0.27757   0.72858   0.92936   0.00000  Uiso   1.00
C104   C     0.29131   0.75518   0.87157   0.00000  Uiso   1.00
C105   C     0.23723   0.71685   0.88328   0.00000  Uiso   1.00
C106   C     0.26369   0.70290   0.98719   0.00000  Uiso   1.00
C107   C     0.22377   0.69267   0.93842   0.00000  Uiso   1.00
C108   C     0.25462   0.70866   0.95105   0.00000  Uiso   1.00
C109   C     0.26825   0.73349   0.89553   0.00000  Uiso   1.00
C110   C     0.21533   0.69557   0.90429   0.00000  Uiso   1.00
H111   H     0.26585   0.72686   1.00182   0.00000  Uiso   1.00
N112   N     0.47198   0.78681   0.01174   0.00000  Uiso   1.00
N113   N     0.31152   0.74069   0.94091   0.00000  Uiso   1.00
H114   H     0.28851   0.69229   0.98767   0.00000  Uiso   1.00
H115   H     0.56454   0.86755   0.02027   0.00000  Uiso   1.00
H116   H     0.55159   0.79193   0.09593   0.00000  Uiso   1.00
H117   H     0.53208   0.86352   0.97058   0.00000  Uiso   1.00
H118   H     0.51208   0.82266   0.95818   0.00000  Uiso   1.00
H119   H     0.48805   0.85063   0.98292   0.00000  Uiso   1.00
H120   H     0.49649   0.73231   0.05088   0.00000  Uiso   1.00
H121   H     0.50868   0.74606   0.09302   0.00000  Uiso   1.00
H122   H     0.47015   0.75817   0.07577   0.00000  Uiso   1.00
O123   O     0.44945   0.82957   0.04472   0.00000  Uiso   1.00
O124   O     0.49580   0.74425   0.97980   0.00000  Uiso   1.00
H125   H     0.45199   0.70960   0.94398   0.00000  Uiso   1.00
H126   H     0.38739   0.83382   0.03348   0.00000  Uiso   1.00
H127   H     0.39606   0.69350   0.91936   0.00000  Uiso   1.00
H128   H     0.27678   0.77439   0.86101   0.00000  Uiso   1.00
H129   H     0.31413   0.76842   0.88418   0.00000  Uiso   1.00
H130   H     0.23110   0.71928   0.85689   0.00000  Uiso   1.00
H131   H     0.33196   0.81873   0.00759   0.00000  Uiso   1.00
H132   H     0.24384   0.68518   1.00015   0.00000  Uiso   1.00
O133   O     0.28881   0.78555   0.97017   0.00000  Uiso   1.00
O134   O     0.33308   0.69577   0.91058   0.00000  Uiso   1.00
H135   H     0.30032   0.73954   0.85040   0.00000  Uiso   1.00
H136   H     0.52815   0.99695   0.15387   0.00000  Uiso   1.00
C137   C     0.41541   0.30439   0.33258   0.00000  Uiso   1.00
C138   C     0.42983   0.28177   0.35272   0.00000  Uiso   1.00
C139   C     0.44089   0.25269   0.33859   0.00000  Uiso   1.00
C140   C     0.43714   0.24572   0.30358   0.00000  Uiso   1.00
C141   C     0.42232   0.26812   0.28305   0.00000  Uiso   1.00
C142   C     0.41147   0.29732   0.29777   0.00000  Uiso   1.00
C143   C     0.45635   0.22901   0.36102   0.00000  Uiso   1.00
C144   C     0.41791   0.26087   0.24572   0.00000  Uiso   1.00
C145   C     0.42699   0.18626   0.29098   0.00000  Uiso   1.00
C146   C     0.43931   0.15576   0.28250   0.00000  Uiso   1.00
C147   C     0.47391   0.15598   0.27171   0.00000  Uiso   1.00
C148   C     0.49533   0.18656   0.26880   0.00000  Uiso   1.00
C149   C     0.48187   0.21641   0.27766   0.00000  Uiso   1.00
C150   C     0.41817   0.12511   0.28529   0.00000  Uiso   1.00
C151   C     0.43126   0.09503   0.27755   0.00000  Uiso   1.00
C152   C     0.46574   0.09495   0.26676   0.00000  Uiso   1.00
C153   C     0.48716   0.12554   0.26392   0.00000  Uiso   1.00
C154   C     0.52176   0.12578   0.25314   0.00000  Uiso   1.00
C155   C     0.54286   0.15643   0.25023   0.00000  Uiso   1.00
C156   C     0.52977   0.18650   0.25792   0.00000  Uiso   1.00
C157   C     0.47923   0.06510   0.25785   0.00000  Uiso   1.00
C158   C     0.53412   0.09530   0.24467   0.00000  Uiso   1.00
C159   C     0.52395   0.03610   0.23122   0.00000  Uiso   1.00
C160   C     0.54683   0.01981   0.28784   0.00000  Uiso   1.00
C161   C     0.55370   0.98648   0.23423   0.00000  Uiso   1.00
C162   C     0.50111   0.05263   0.17517   0.00000  Uiso   1.00
C163   C     0.53143   1.00174   0.18084   0.00000  Uiso   1.00
C164   C     0.51895   0.02955   0.19627   0.00000  Uiso   1.00
C165   C     0.54112   0.01419   0.25045   0.00000  Uiso   1.00
C166   C     0.54915   0.98055   0.19945   0.00000  Uiso   1.00
H167   H     0.51547   0.07814   0.17576   0.00000  Uiso   1.00
N168   N     0.44853   0.21565   0.28927   0.00000  Uiso   1.00
N169   N     0.51259   0.06589   0.24624   0.00000  Uiso   1.00
H170   H     0.47457   0.05376   0.18536   0.00000  Uiso   1.00
H171   H     0.43152   0.28628   0.37980   0.00000  Uiso   1.00
H172   H     0.39998   0.31453   0.28215   0.00000  Uiso   1.00
H173   H     0.45755   0.23823   0.38776   0.00000  Uiso   1.00
H174   H     0.44055   0.20420   0.36060   0.00000  Uiso   1.00
H175   H     0.48291   0.22614   0.35186   0.00000  Uiso   1.00
H176   H     0.40139   0.23674   0.24202   0.00000  Uiso   1.00
H177   H     0.40572   0.28070   0.23320   0.00000  Uiso   1.00
H178   H     0.44337   0.25925   0.23313   0.00000  Uiso   1.00
O179   O     0.50264   0.24637   0.27597   0.00000  Uiso   1.00
O180   O     0.39358   0.18650   0.30236   0.00000  Uiso   1.00
H181   H     0.39150   0.12426   0.29358   0.00000  Uiso   1.00
H182   H     0.54673   0.20968   0.25540   0.00000  Uiso   1.00
H183   H     0.41425   0.07186   0.27992   0.00000  Uiso   1.00
H184   H     0.57484   0.02329   0.29254   0.00000  Uiso   1.00
H185   H     0.53570   0.04210   0.29812   0.00000  Uiso   1.00
H186   H     0.56694   0.96962   0.24864   0.00000  Uiso   1.00
H187   H     0.56951   0.15728   0.24188   0.00000  Uiso   1.00
H188   H     0.49944   0.04402   0.14824   0.00000  Uiso   1.00
O189   O     0.56753   0.09515   0.23325   0.00000  Uiso   1.00
O190   O     0.45848   0.03514   0.25941   0.00000  Uiso   1.00
H191   H     0.53473   0.99767   0.30194   0.00000  Uiso   1.00
H192   H     0.46928   0.36931   0.49940   0.00000  Uiso   1.00
C193   C     0.78957   0.19521   0.57349   0.00000  Uiso   1.00
C194   C     0.78236   0.18924   0.53915   0.00000  Uiso   1.00
C195   C     0.75380   0.20123   0.52511   0.00000  Uiso   1.00
C196   C     0.73302   0.22025   0.54569   0.00000  Uiso   1.00
C197   C     0.74149   0.22781   0.57978   0.00000  Uiso   1.00
C198   C     0.76957   0.21500   0.59343   0.00000  Uiso   1.00
C199   C     0.74440   0.19207   0.48903   0.00000  Uiso   1.00
C200   C     0.71971   0.24814   0.60210   0.00000  Uiso   1.00
C201   C     0.67144   0.21334   0.53791   0.00000  Uiso   1.00
C202   C     0.64117   0.22628   0.52942   0.00000  Uiso   1.00
C203   C     0.64376   0.25809   0.51476   0.00000  Uiso   1.00
C204   C     0.67634   0.27600   0.50810   0.00000  Uiso   1.00
C205   C     0.70582   0.26211   0.51713   0.00000  Uiso   1.00
C206   C     0.60852   0.20864   0.53590   0.00000  Uiso   1.00
C207   C     0.57877   0.22256   0.52820   0.00000  Uiso   1.00
C208   C     0.58107   0.25440   0.51379   0.00000  Uiso   1.00
C209   C     0.61371   0.27216   0.50699   0.00000  Uiso   1.00
C210   C     0.61639   0.30399   0.49238   0.00000  Uiso   1.00
C211   C     0.64901   0.32147   0.48556   0.00000  Uiso   1.00
C212   C     0.67867   0.30761   0.49333   0.00000  Uiso   1.00
C213   C     0.55160   0.26886   0.50548   0.00000  Uiso   1.00
C214   C     0.58629   0.31734   0.48442   0.00000  Uiso   1.00
C215   C     0.52482   0.31243   0.47855   0.00000  Uiso   1.00
C216   C     0.52906   0.27798   0.42361   0.00000  Uiso   1.00
C217   C     0.48644   0.31861   0.43259   0.00000  Uiso   1.00
C218   C     0.51992   0.34505   0.53379   0.00000  Uiso   1.00
C219   C     0.48163   0.35100   0.48454   0.00000  Uiso   1.00
C220   C     0.50853   0.33594   0.49830   0.00000  Uiso   1.00
C221   C     0.51326   0.30341   0.44565   0.00000  Uiso   1.00
C222   C     0.47084   0.34275   0.45150   0.00000  Uiso   1.00
H223   H     0.54722   0.35628   0.53319   0.00000  Uiso   1.00
N224   N     0.70284   0.23169   0.53239   0.00000  Uiso   1.00
N225   N     0.55477   0.29958   0.49069   0.00000  Uiso   1.00
H226   H     0.51727   0.32224   0.54942   0.00000  Uiso   1.00
H227   H     0.79732   0.17308   0.52409   0.00000  Uiso   1.00
H228   H     0.77498   0.21917   0.62012   0.00000  Uiso   1.00
H229   H     0.76339   0.17730   0.47626   0.00000  Uiso   1.00
H230   H     0.71884   0.17681   0.48875   0.00000  Uiso   1.00
H231   H     0.74329   0.21501   0.47423   0.00000  Uiso   1.00
H232   H     0.69350   0.23453   0.60541   0.00000  Uiso   1.00
H233   H     0.73067   0.25292   0.62766   0.00000  Uiso   1.00
H234   H     0.71786   0.27266   0.59044   0.00000  Uiso   1.00
O235   O     0.73774   0.27964   0.51175   0.00000  Uiso   1.00
O236   O     0.66950   0.18270   0.55289   0.00000  Uiso   1.00
H237   H     0.60582   0.18414   0.54714   0.00000  Uiso   1.00
H238   H     0.70341   0.32182   0.48790   0.00000  Uiso   1.00
H239   H     0.55402   0.20830   0.53357   0.00000  Uiso   1.00
H240   H     0.53549   0.28827   0.39798   0.00000  Uiso   1.00
H241   H     0.55295   0.27064   0.43399   0.00000  Uiso   1.00
H242   H     0.47841   0.31210   0.40704   0.00000  Uiso   1.00
H243   H     0.65174   0.34591   0.47419   0.00000  Uiso   1.00
H244   H     0.50425   0.36331   0.54616   0.00000  Uiso   1.00
O245   O     0.58849   0.34798   0.46938   0.00000  Uiso   1.00
O246   O     0.51956   0.25175   0.51128   0.00000  Uiso   1.00
H247   H     0.51033   0.25517   0.42107   0.00000  Uiso   1.00
H248   H     0.63075   0.90243   0.02085   0.00000  Uiso   1.00
C249   C     0.81261   0.06604   0.70897   0.00000  Uiso   1.00
C250   C     0.83205   0.06512   0.73807   0.00000  Uiso   1.00
C251   C     0.81705   0.05157   0.76807   0.00000  Uiso   1.00
C252   C     0.78223   0.03773   0.76861   0.00000  Uiso   1.00
C253   C     0.76265   0.03799   0.73911   0.00000  Uiso   1.00
C254   C     0.77792   0.05276   0.70953   0.00000  Uiso   1.00
C255   C     0.83812   0.05224   0.79950   0.00000  Uiso   1.00
C256   C     0.72592   0.02210   0.73902   0.00000  Uiso   1.00
C257   C     0.74984   0.04381   0.82111   0.00000  Uiso   1.00
C258   C     0.73884   0.03264   0.85357   0.00000  Uiso   1.00
C259   C     0.74580   0.00087   0.86361   0.00000  Uiso   1.00
C260   C     0.76251   0.98039   0.84077   0.00000  Uiso   1.00
C261   C     0.77249   0.99240   0.80837   0.00000  Uiso   1.00
C262   C     0.72184   0.05271   0.87642   0.00000  Uiso   1.00
C263   C     0.71204   0.04145   0.90895   0.00000  Uiso   1.00
C264   C     0.71922   0.00996   0.91937   0.00000  Uiso   1.00
C265   C     0.73627   0.98964   0.89664   0.00000  Uiso   1.00
C266   C     0.74373   0.95809   0.90683   0.00000  Uiso   1.00
C267   C     0.76036   0.93785   0.88385   0.00000  Uiso   1.00
C268   C     0.76953   0.94883   0.85110   0.00000  Uiso   1.00
C269   C     0.70919  -0.00213   0.95176   0.00000  Uiso   1.00
C270   C     0.73368   0.94730   0.93964   0.00000  Uiso   1.00
C271   C     0.70133   0.95294   0.99216   0.00000  Uiso   1.00
C272   C     0.75241   0.98082   0.02544   0.00000  Uiso   1.00
C273   C     0.70401   0.94368   0.05291   0.00000  Uiso   1.00
C274   C     0.65027   0.92647   0.95881   0.00000  Uiso   1.00
C275   C     0.65521   0.91822   0.02132   0.00000  Uiso   1.00
C276   C     0.66934   0.93270   0.99143   0.00000  Uiso   1.00
C277   C     0.71865   0.95878   0.02318   0.00000  Uiso   1.00
C278   C     0.67245   0.92341   0.05186   0.00000  Uiso   1.00
H279   H     0.66591   0.91354   0.93999   0.00000  Uiso   1.00
N280   N     0.76688   0.02394   0.79959   0.00000  Uiso   1.00
N281   N     0.71605   0.96684   0.96098   0.00000  Uiso   1.00
H282   H     0.64499   0.95061   0.94830   0.00000  Uiso   1.00
H283   H     0.85890   0.07551   0.73746   0.00000  Uiso   1.00
H284   H     0.76317   0.05310   0.68673   0.00000  Uiso   1.00
H285   H     0.86454   0.06512   0.79519   0.00000  Uiso   1.00
H286   H     0.82564   0.06575   0.82033   0.00000  Uiso   1.00
H287   H     0.84017   0.02633   0.80751   0.00000  Uiso   1.00
H288   H     0.71042   0.03483   0.75811   0.00000  Uiso   1.00
H289   H     0.71444   0.02383   0.71379   0.00000  Uiso   1.00
H290   H     0.72470   0.99524   0.74534   0.00000  Uiso   1.00
O291   O     0.78918   0.97299   0.78589   0.00000  Uiso   1.00
O292   O     0.74462   0.07528   0.81138   0.00000  Uiso   1.00
H293   H     0.71612   0.07719   0.86927   0.00000  Uiso   1.00
H294   H     0.78236   0.93264   0.83403   0.00000  Uiso   1.00
H295   H     0.69887   0.05752   0.92587   0.00000  Uiso   1.00
H296   H     0.77217   0.96631   0.03535   0.00000  Uiso   1.00
H297   H     0.76190  -0.00899   1.00053   0.00000  Uiso   1.00
H298   H     0.71710   0.94780   0.07675   0.00000  Uiso   1.00
H299   H     0.76621   0.91341   0.89101   0.00000  Uiso   1.00
H300   H     0.62532   0.91058   0.96273   0.00000  Uiso   1.00
O301   O     0.74037   0.91645   0.94992   0.00000  Uiso   1.00
O302   O     0.69151   0.01677   0.97388   0.00000  Uiso   1.00
H303   H     0.74935   0.00223   0.04302   0.00000  Uiso   1.00
H304   H     0.62789   0.93708   0.21542   0.00000  Uiso   1.00
C305   C     0.82204   0.04667   0.54383   0.00000  Uiso   1.00
C306   C     0.84212   0.02621   0.52458   0.00000  Uiso   1.00
C307   C     0.83105   0.01293   0.49286   0.00000  Uiso   1.00
C308   C     0.79937   0.02011   0.48042   0.00000  Uiso   1.00
C309   C     0.77862   0.03968   0.50018   0.00000  Uiso   1.00
C310   C     0.78999   0.05251   0.53166   0.00000  Uiso   1.00
C311   C     0.85334  -0.00799   0.47193   0.00000  Uiso   1.00
C312   C     0.74487   0.04786   0.48724   0.00000  Uiso   1.00
C313   C     0.76606   0.97800   0.44647   0.00000  Uiso   1.00
C314   C     0.75081   0.96687   0.41584   0.00000  Uiso   1.00
C315   C     0.75853   0.98594   0.38644   0.00000  Uiso   1.00
C316   C     0.78168   0.01552   0.38798   0.00000  Uiso   1.00
C317   C     0.79609   0.02585   0.41934   0.00000  Uiso   1.00
C318   C     0.72760   0.93748   0.41408   0.00000  Uiso   1.00
C319   C     0.71210   0.92722   0.38358   0.00000  Uiso   1.00
C320   C     0.71952   0.94607   0.35413   0.00000  Uiso   1.00
C321   C     0.74288   0.97550   0.35549   0.00000  Uiso   1.00
C322   C     0.75068  -0.00561   0.32597   0.00000  Uiso   1.00
C323   C     0.77405   0.02370   0.32770   0.00000  Uiso   1.00
C324   C     0.78930   0.03419   0.35838   0.00000  Uiso   1.00
C325   C     0.70451   0.93596   0.32314   0.00000  Uiso   1.00
C326   C     0.73519   0.98311   0.29537   0.00000  Uiso   1.00
C327   C     0.69975   0.94089   0.26267   0.00000  Uiso   1.00
C328   C     0.75076   0.90734   0.25519   0.00000  Uiso   1.00
C329   C     0.70082   0.89965   0.21697   0.00000  Uiso   1.00
C330   C     0.65057   0.97590   0.26918   0.00000  Uiso   1.00
C331   C     0.65267   0.93169   0.22332   0.00000  Uiso   1.00
C332   C     0.66812   0.94911   0.25123   0.00000  Uiso   1.00
C333   C     0.71654   0.91652   0.24482   0.00000  Uiso   1.00
C334   C     0.66862   0.90659   0.20628   0.00000  Uiso   1.00
H335   H     0.66807  -0.00027   0.26932   0.00000  Uiso   1.00
N336   N     0.78773   0.00730   0.44782   0.00000  Uiso   1.00
N337   N     0.71285   0.95420   0.29451   0.00000  Uiso   1.00
H338   H     0.64380   0.96845   0.29572   0.00000  Uiso   1.00
H339   H     0.86707   0.02189   0.53344   0.00000  Uiso   1.00
H340   H     0.77423   0.06833   0.54610   0.00000  Uiso   1.00
H341   H     0.87733   0.98867   0.48507   0.00000  Uiso   1.00
H342   H     0.83907   0.96695   0.46693   0.00000  Uiso   1.00
H343   H     0.86052   0.00428   0.44735   0.00000  Uiso   1.00
H344   H     0.72725   0.02451   0.48319   0.00000  Uiso   1.00
H345   H     0.73209   0.06427   0.50532   0.00000  Uiso   1.00
H346   H     0.74919   0.06097   0.46272   0.00000  Uiso   1.00
O347   O     0.81784   0.05518   0.42164   0.00000  Uiso   1.00
O348   O     0.75832   0.96002   0.47549   0.00000  Uiso   1.00
H349   H     0.72122   0.92236   0.43628   0.00000  Uiso   1.00
H350   H     0.80702   0.05701   0.35876   0.00000  Uiso   1.00
H351   H     0.69439   0.90439   0.38316   0.00000  Uiso   1.00
H352   H     0.76943   0.91095   0.23347   0.00000  Uiso   1.00
H353   H     0.76168   0.92278   0.27677   0.00000  Uiso   1.00
H354   H     0.71395   0.88084   0.20362   0.00000  Uiso   1.00
H355   H     0.78064   0.03861   0.30538   0.00000  Uiso   1.00
H356   H     0.62679   0.98034   0.25634   0.00000  Uiso   1.00
O357   O     0.74319   0.00055   0.26608   0.00000  Uiso   1.00
O358   O     0.68202   0.90708   0.32130   0.00000  Uiso   1.00
H359   H     0.74784   0.88071   0.26259   0.00000  Uiso   1.00
H360   H     0.24087   0.61885   0.78911   0.00000  Uiso   1.00
C361   C     0.32246   0.45808   0.44506   0.00000  Uiso   1.00
C362   C     0.29158   0.44264   0.45939   0.00000  Uiso   1.00
C363   C     0.27862   0.45419   0.49051   0.00000  Uiso   1.00
C364   C     0.29628   0.48246   0.50697   0.00000  Uiso   1.00
C365   C     0.32579   0.49978   0.49102   0.00000  Uiso   1.00
C366   C     0.33894   0.48708   0.46049   0.00000  Uiso   1.00
C367   C     0.24766   0.43475   0.50727   0.00000  Uiso   1.00
C368   C     0.34435   0.53066   0.50737   0.00000  Uiso   1.00
C369   C     0.30431   0.48072   0.56773   0.00000  Uiso   1.00
C370   C     0.29581   0.48913   0.60152   0.00000  Uiso   1.00
C371   C     0.26820   0.50784   0.60798   0.00000  Uiso   1.00
C372   C     0.24974   0.51805   0.58068   0.00000  Uiso   1.00
C373   C     0.25973   0.50976   0.54721   0.00000  Uiso   1.00
C374   C     0.31428   0.47934   0.62890   0.00000  Uiso   1.00
C375   C     0.30562   0.48827   0.66226   0.00000  Uiso   1.00
C376   C     0.27808   0.50694   0.66906   0.00000  Uiso   1.00
C377   C     0.25911   0.51648   0.64181   0.00000  Uiso   1.00
C378   C     0.23119   0.53479   0.64830   0.00000  Uiso   1.00
C379   C     0.21260   0.54441   0.62092   0.00000  Uiso   1.00
C380   C     0.22188   0.53630   0.58750   0.00000  Uiso   1.00
C381   C     0.26916   0.51664   0.70241   0.00000  Uiso   1.00
C382   C     0.22280   0.54334   0.68208   0.00000  Uiso   1.00
C383   C     0.23429   0.54617   0.74233   0.00000  Uiso   1.00
C384   C     0.19751   0.49074   0.75496   0.00000  Uiso   1.00
C385   C     0.20002   0.53982   0.79508   0.00000  Uiso   1.00
C386   C     0.27106   0.60100   0.72990   0.00000  Uiso   1.00
C387   C     0.23392   0.59261   0.78288   0.00000  Uiso   1.00
C388   C     0.24648   0.57923   0.75249   0.00000  Uiso   1.00
C389   C     0.21167   0.52604   0.76437   0.00000  Uiso   1.00
C390   C     0.20981   0.57347   0.80367   0.00000  Uiso   1.00
H391   H     0.25877   0.60506   0.70556   0.00000  Uiso   1.00
N392   N     0.28653   0.49133   0.54135   0.00000  Uiso   1.00
N393   N     0.24207   0.53469   0.70828   0.00000  Uiso   1.00
H394   H     0.29457   0.58875   0.72459   0.00000  Uiso   1.00
H395   H     0.27942   0.41962   0.44799   0.00000  Uiso   1.00
H396   H     0.36316   0.49862   0.44973   0.00000  Uiso   1.00
H397   H     0.23739   0.41278   0.49153   0.00000  Uiso   1.00
H398   H     0.25472   0.42557   0.53218   0.00000  Uiso   1.00
H399   H     0.22694   0.45099   0.51131   0.00000  Uiso   1.00
H400   H     0.35484   0.52439   0.53196   0.00000  Uiso   1.00
H401   H     0.36605   0.54201   0.49101   0.00000  Uiso   1.00
H402   H     0.32626   0.54956   0.51188   0.00000  Uiso   1.00
O403   O     0.24257   0.52025   0.52033   0.00000  Uiso   1.00
O404   O     0.33069   0.46181   0.56115   0.00000  Uiso   1.00
H405   H     0.33566   0.46496   0.62463   0.00000  Uiso   1.00
H406   H     0.20713   0.54433   0.56704   0.00000  Uiso   1.00
H407   H     0.32058   0.48052   0.68268   0.00000  Uiso   1.00
H408   H     0.16907   0.48884   0.75368   0.00000  Uiso   1.00
H409   H     0.20765   0.48235   0.73008   0.00000  Uiso   1.00
H410   H     0.18061   0.52522   0.81054   0.00000  Uiso   1.00
H411   H     0.19098   0.55848   0.62519   0.00000  Uiso   1.00
H412   H     0.27890   0.62584   0.74192   0.00000  Uiso   1.00
O413   O     0.19551   0.56105   0.68879   0.00000  Uiso   1.00
O414   O     0.28790   0.50827   0.72915   0.00000  Uiso   1.00
H415   H     0.20428   0.47351   0.77460   0.00000  Uiso   1.00
H416   H     0.28167   0.38331   0.26755   0.00000  Uiso   1.00
C417   C     0.19496   0.55350   0.94901   0.00000  Uiso   1.00
C418   C     0.21453   0.57701   0.96943   0.00000  Uiso   1.00
C419   C     0.22873   0.56746  -0.00064   0.00000  Uiso   1.00
C420   C     0.22377   0.53357   0.00865   0.00000  Uiso   1.00
C421   C     0.20602   0.50941   0.98685   0.00000  Uiso   1.00
C422   C     0.19136   0.51967   0.95725   0.00000  Uiso   1.00
C423   C     0.24693   0.59377   0.02240   0.00000  Uiso   1.00
C424   C     0.20122   0.47307   0.99603   0.00000  Uiso   1.00
C425   C     0.20897   0.52402   0.06793   0.00000  Uiso   1.00
C426   C     0.21699   0.51544   0.10085   0.00000  Uiso   1.00
C427   C     0.25024   0.50747   0.10689   0.00000  Uiso   1.00
C428   C     0.27496   0.50849   0.08010   0.00000  Uiso   1.00
C429   C     0.26565   0.51703   0.04745   0.00000  Uiso   1.00
C430   C     0.19255   0.51448   0.12773   0.00000  Uiso   1.00
C431   C     0.20076   0.50501   0.16008   0.00000  Uiso   1.00
C432   C     0.23364   0.49643   0.16630   0.00000  Uiso   1.00
C433   C     0.25862   0.49809   0.13973   0.00000  Uiso   1.00
C434   C     0.29177   0.48984   0.14581   0.00000  Uiso   1.00
C435   C     0.31647   0.49162   0.11909   0.00000  Uiso   1.00
C436   C     0.30815   0.50079   0.08659   0.00000  Uiso   1.00
C437   C     0.24194   0.48536   0.19825   0.00000  Uiso   1.00
C438   C     0.29900   0.47921   0.17833   0.00000  Uiso   1.00
C439   C     0.28020   0.46083   0.23495   0.00000  Uiso   1.00
C440   C     0.29635   0.51795   0.26340   0.00000  Uiso   1.00
C441   C     0.29746   0.46444   0.29403   0.00000  Uiso   1.00
C442   C     0.26473   0.40423   0.20629   0.00000  Uiso   1.00
C443   C     0.28328   0.41033   0.26682   0.00000  Uiso   1.00
C444   C     0.27590   0.42561   0.23676   0.00000  Uiso   1.00
C445   C     0.29065   0.48035   0.26398   0.00000  Uiso   1.00
C446   C     0.29480   0.42949   0.29527   0.00000  Uiso   1.00
H447   H     0.28425   0.40850   0.18537   0.00000  Uiso   1.00
N448   N     0.23308   0.52439   0.04199   0.00000  Uiso   1.00
N449   N     0.27390   0.47630   0.20345   0.00000  Uiso   1.00
H450   H     0.23973   0.41067   0.19755   0.00000  Uiso   1.00
H451   H     0.21649   0.60329   0.96329   0.00000  Uiso   1.00
H452   H     0.17560   0.50168   0.94175   0.00000  Uiso   1.00
H453   H     0.24920   0.61899   0.01111   0.00000  Uiso   1.00
H454   H     0.23247   0.59474   0.04697   0.00000  Uiso   1.00
H455   H     0.27322   0.58781   0.02723   0.00000  Uiso   1.00
H456   H     0.18559   0.46953   0.01991   0.00000  Uiso   1.00
H457   H     0.18796   0.45725   0.97582   0.00000  Uiso   1.00
H458   H     0.22666   0.46441   0.99964   0.00000  Uiso   1.00
O459   O     0.28927   0.51793   0.02096   0.00000  Uiso   1.00
O460   O     0.17670   0.53202   0.06169   0.00000  Uiso   1.00
H461   H     0.16687   0.52071   0.12381   0.00000  Uiso   1.00
H462   H     0.32773   0.50160   0.06655   0.00000  Uiso   1.00
H463   H     0.18116   0.50411   0.18010   0.00000  Uiso   1.00
H464   H     0.32336   0.52676   0.26991   0.00000  Uiso   1.00
H465   H     0.29163   0.52803   0.23824   0.00000  Uiso   1.00
H466   H     0.30720   0.47941   0.31563   0.00000  Uiso   1.00
H467   H     0.34219   0.48552   0.12309   0.00000  Uiso   1.00
H468   H     0.26160   0.37717   0.21217   0.00000  Uiso   1.00
O469   O     0.33098   0.47049   0.18457   0.00000  Uiso   1.00
O470   O     0.21750   0.48244   0.22404   0.00000  Uiso   1.00
H471   H     0.27886   0.52825   0.28245   0.00000  Uiso   1.00
H472   H     0.94656   0.12870   0.51891   0.00000  Uiso   1.00
C473   C     0.29742   0.31986   0.43563   0.00000  Uiso   1.00
C474   C     0.28442   0.33144   0.46654   0.00000  Uiso   1.00
C475   C     0.25369   0.31563   0.48093   0.00000  Uiso   1.00
C476   C     0.23645   0.28707   0.46465   0.00000  Uiso   1.00
C477   C     0.25118   0.27377   0.43496   0.00000  Uiso   1.00
C478   C     0.28127   0.29068   0.42035   0.00000  Uiso   1.00
C479   C     0.23827   0.33058   0.51225   0.00000  Uiso   1.00
C480   C     0.23418   0.24241   0.41815   0.00000  Uiso   1.00
C481   C     0.17521   0.28516   0.45817   0.00000  Uiso   1.00
C482   C     0.14104   0.27398   0.46755   0.00000  Uiso   1.00
C483   C     0.13440   0.25248   0.49528   0.00000  Uiso   1.00
C484   C     0.16196   0.24229   0.51297   0.00000  Uiso   1.00
C485   C     0.19587   0.25358   0.50215   0.00000  Uiso   1.00
C486   C     0.11345   0.28379   0.44984   0.00000  Uiso   1.00
C487   C     0.07961   0.27219   0.45938   0.00000  Uiso   1.00
C488   C     0.07264   0.25074   0.48698   0.00000  Uiso   1.00
C489   C     0.10011   0.24105   0.50519   0.00000  Uiso   1.00
C490   C     0.09336   0.21974   0.53308   0.00000  Uiso   1.00
C491   C     0.12099   0.21009   0.55091   0.00000  Uiso   1.00
C492   C     0.15492   0.22113   0.54088   0.00000  Uiso   1.00
C493   C     0.03882   0.23823   0.49655   0.00000  Uiso   1.00
C494   C     0.05904   0.20822   0.54201   0.00000  Uiso   1.00
C495   C    -0.00194   0.20228   0.53069   0.00000  Uiso   1.00
C496   C     0.98662   0.25292   0.56774   0.00000  Uiso   1.00
C497   C     0.94286   0.20300   0.56052   0.00000  Uiso   1.00
C498   C     0.01014   0.15168   0.49485   0.00000  Uiso   1.00
C499   C     0.95417   0.15439   0.52688   0.00000  Uiso   1.00
C500   C     0.98674   0.17015   0.51735   0.00000  Uiso   1.00
C501   C     0.97566   0.21909   0.55189   0.00000  Uiso   1.00
C502   C     0.93267   0.17014   0.54940   0.00000  Uiso   1.00
H503   H     0.03292   0.14670   0.50915   0.00000  Uiso   1.00
N504   N     0.20181   0.27471   0.47525   0.00000  Uiso   1.00
N505   N     0.03270   0.21708   0.52333   0.00000  Uiso   1.00
H506   H     0.01884   0.16685   0.47232   0.00000  Uiso   1.00
H507   H     0.29692   0.35422   0.47811   0.00000  Uiso   1.00
H508   H     0.29167   0.28172   0.39656   0.00000  Uiso   1.00
H509   H     0.25461   0.35322   0.52152   0.00000  Uiso   1.00
H510   H     0.21264   0.33782   0.50660   0.00000  Uiso   1.00
H511   H     0.23540   0.31211   0.53290   0.00000  Uiso   1.00
H512   H     0.20859   0.24658   0.40897   0.00000  Uiso   1.00
H513   H     0.24977   0.23448   0.39612   0.00000  Uiso   1.00
H514   H     0.23094   0.22182   0.43669   0.00000  Uiso   1.00
O515   O     0.22308   0.24338   0.51856   0.00000  Uiso   1.00
O516   O     0.18202   0.30676   0.43165   0.00000  Uiso   1.00
H517   H     0.11789   0.30027   0.42839   0.00000  Uiso   1.00
H518   H     0.17558   0.21305   0.55506   0.00000  Uiso   1.00
H519   H     0.05897   0.28001   0.44499   0.00000  Uiso   1.00
H520   H     0.98453   0.25118   0.59585   0.00000  Uiso   1.00
H521   H     0.01350   0.26282   0.56083   0.00000  Uiso   1.00
H522   H     0.92676   0.21481   0.57882   0.00000  Uiso   1.00
H523   H     0.11650   0.19375   0.57248   0.00000  Uiso   1.00
H524   H    -0.00303   0.12729   0.48573   0.00000  Uiso   1.00
O525   O     0.05190   0.18731   0.56903   0.00000  Uiso   1.00
O526   O     0.01180   0.24667   0.47852   0.00000  Uiso   1.00
H527   H     0.96948   0.27100   0.55943   0.00000  Uiso   1.00
H528   H     0.08569   0.73995   0.84526   0.00000  Uiso   1.00
C529   C     0.93038   0.01962   0.67036   0.00000  Uiso   1.00
C530   C     0.92848   0.98937   0.65216   0.00000  Uiso   1.00
C531   C     0.93939   0.96112   0.66651   0.00000  Uiso   1.00
C532   C     0.95336   0.96361   0.69922   0.00000  Uiso   1.00
C533   C     0.95500   0.99412   0.71780   0.00000  Uiso   1.00
C534   C     0.94299   0.02188   0.70327   0.00000  Uiso   1.00
C535   C     0.93600   0.92841   0.64701   0.00000  Uiso   1.00
C536   C     0.96962   0.99708   0.75278   0.00000  Uiso   1.00
C537   C     1.00176   0.93254   0.70448   0.00000  Uiso   1.00
C538   C     0.01611   0.90398   0.71386   0.00000  Uiso   1.00
C539   C     0.99540   0.87872   0.73169   0.00000  Uiso   1.00
C540   C     0.96097   0.88265   0.74034   0.00000  Uiso   1.00
C541   C     0.94774   0.91176   0.73044   0.00000  Uiso   1.00
C542   C     0.05042   0.89989   0.70539   0.00000  Uiso   1.00
C543   C     0.06405   0.87105   0.71452   0.00000  Uiso   1.00
C544   C     0.04365   0.84568   0.73225   0.00000  Uiso   1.00
C545   C     0.00915   0.84943   0.74075   0.00000  Uiso   1.00
C546   C     0.98843   0.82398   0.75830   0.00000  Uiso   1.00
C547   C     0.95415   0.82817   0.76691   0.00000  Uiso   1.00
C548   C     0.94059   0.85723   0.75812   0.00000  Uiso   1.00
C549   C     0.05703   0.81676   0.74221   0.00000  Uiso   1.00
C550   C     0.00279   0.79518   0.76719   0.00000  Uiso   1.00
C551   C     0.05211   0.76478   0.77249   0.00000  Uiso   1.00
C552   C     0.04822   0.73505   0.71446   0.00000  Uiso   1.00
C553   C     0.07667   0.71246   0.76341   0.00000  Uiso   1.00
C554   C     0.05588   0.79445   0.83009   0.00000  Uiso   1.00
C555   C     0.07833   0.73946   0.81892   0.00000  Uiso   1.00
C556   C     0.06202   0.76557   0.80670   0.00000  Uiso   1.00
C557   C     0.05920   0.73781   0.75080   0.00000  Uiso   1.00
C558   C     0.08596   0.71309   0.79743   0.00000  Uiso   1.00
H559   H     0.02788   0.79557   0.83376   0.00000  Uiso   1.00
N560   N     0.96804   0.93565   0.71238   0.00000  Uiso   1.00
N561   N     0.03670   0.79246   0.75968   0.00000  Uiso   1.00
H562   H     0.06814   0.81826   0.81908   0.00000  Uiso   1.00
H563   H     0.91784   0.98774   0.62701   0.00000  Uiso   1.00
H564   H     0.94381   0.04541   0.71726   0.00000  Uiso   1.00
H565   H     0.92440   0.93060   0.62188   0.00000  Uiso   1.00
H566   H     0.96169   0.91992   0.64280   0.00000  Uiso   1.00
H567   H     0.91924   0.90926   0.66164   0.00000  Uiso   1.00
H568   H     0.99670   0.99157   0.75160   0.00000  Uiso   1.00
H569   H     0.96916   0.02260   0.76389   0.00000  Uiso   1.00
H570   H     0.95434   0.97901   0.76987   0.00000  Uiso   1.00
O571   O     0.91413   0.91590   0.73815   0.00000  Uiso   1.00
O572   O     0.02140   0.95712   0.68653   0.00000  Uiso   1.00
H573   H     0.06682   0.91891   0.69161   0.00000  Uiso   1.00
H574   H     0.91408   0.85964   0.76517   0.00000  Uiso   1.00
H575   H     0.09060   0.86871   0.70762   0.00000  Uiso   1.00
H576   H     0.03171   0.71095   0.71038   0.00000  Uiso   1.00
H577   H     0.03329   0.75542   0.70744   0.00000  Uiso   1.00
H578   H     0.08213   0.69173   0.74698   0.00000  Uiso   1.00
H579   H     0.93774   0.80906   0.78058   0.00000  Uiso   1.00
H580   H     0.06682   0.79195   0.85547   0.00000  Uiso   1.00
O581   O     0.98300   0.77003   0.78419   0.00000  Uiso   1.00
O582   O     0.09090   0.81320   0.73510   0.00000  Uiso   1.00
H583   H     0.07125   0.73577   0.69729   0.00000  Uiso   1.00
H584   H     0.94105   0.16984   0.72250   0.00000  Uiso   1.00
C585   C     0.06618   0.53904   0.82443   0.00000  Uiso   1.00
C586   C     0.04360   0.54143   0.79781   0.00000  Uiso   1.00
C587   C     0.02542   0.51238   0.78344   0.00000  Uiso   1.00
C588   C     0.03043   0.48063   0.79557   0.00000  Uiso   1.00
C589   C     0.05271   0.47825   0.82255   0.00000  Uiso   1.00
C590   C     0.07008   0.50731   0.83679   0.00000  Uiso   1.00
C591   C     1.00098   0.51520   0.75525   0.00000  Uiso   1.00
C592   C     0.05862   0.44465   0.83575   0.00000  Uiso   1.00
C593   C     0.03265   0.43568   0.75426   0.00000  Uiso   1.00
C594   C     0.02209   0.40268   0.74345   0.00000  Uiso   1.00
C595   C     0.99228   0.38525   0.75841   0.00000  Uiso   1.00
C596   C     0.97298   0.40133   0.78307   0.00000  Uiso   1.00
C597   C     0.98474   0.43430   0.79329   0.00000  Uiso   1.00
C598   C     0.04121   0.38641   0.71895   0.00000  Uiso   1.00
C599   C     0.03108   0.35312   0.70966   0.00000  Uiso   1.00
C600   C     1.00150   0.33542   0.72453   0.00000  Uiso   1.00
C601   C     0.98194   0.35157   0.74890   0.00000  Uiso   1.00
C602   C     0.95198   0.33418   0.76364   0.00000  Uiso   1.00
C603   C     0.93272   0.35057   0.78796   0.00000  Uiso   1.00
C604   C     0.94314   0.38375   0.79763   0.00000  Uiso   1.00
C605   C     0.99040   0.30216   0.71499   0.00000  Uiso   1.00
C606   C     0.94162   0.30105   0.75293   0.00000  Uiso   1.00
C607   C     0.94623   0.25479   0.71330   0.00000  Uiso   1.00
C608   C     0.92045   0.28725   0.66725   0.00000  Uiso   1.00
C609   C     0.91317   0.22511   0.66876   0.00000  Uiso   1.00
C610   C     0.97187   0.22308   0.75901   0.00000  Uiso   1.00
C611   C     0.93752   0.19362   0.71164   0.00000  Uiso   1.00
C612   C     0.95163   0.22384   0.72730   0.00000  Uiso   1.00
C613   C     0.92703   0.25523   0.68364   0.00000  Uiso   1.00
C614   C     0.91774   0.19429   0.68270   0.00000  Uiso   1.00
H615   H     0.95867   0.23532   0.78030   0.00000  Uiso   1.00
N616   N     0.01465   0.45033   0.77959   0.00000  Uiso   1.00
N617   N     0.96051   0.28602   0.72858   0.00000  Uiso   1.00
H618   H     0.99801   0.23665   0.75492   0.00000  Uiso   1.00
H619   H     0.04025   0.56577   0.78821   0.00000  Uiso   1.00
H620   H     0.08761   0.50496   0.85711   0.00000  Uiso   1.00
H621   H     0.99996   0.54166   0.74847   0.00000  Uiso   1.00
H622   H     0.00923   0.50151   0.73229   0.00000  Uiso   1.00
H623   H     0.97473   0.50419   0.76335   0.00000  Uiso   1.00
H624   H     0.06899   0.42935   0.81501   0.00000  Uiso   1.00
H625   H     0.07730   0.44708   0.85656   0.00000  Uiso   1.00
H626   H     0.03402   0.43137   0.84572   0.00000  Uiso   1.00
O627   O     0.96719   0.44983   0.81843   0.00000  Uiso   1.00
O628   O     0.06235   0.45259   0.74085   0.00000  Uiso   1.00
H629   H     0.06423   0.39923   0.70707   0.00000  Uiso   1.00
H630   H     0.92784   0.39550   0.81666   0.00000  Uiso   1.00
H631   H     0.04645   0.34137   0.69069   0.00000  Uiso   1.00
H632   H     0.89236   0.28766   0.66484   0.00000  Uiso   1.00
H633   H     0.93046   0.30996   0.68186   0.00000  Uiso   1.00
H634   H     0.89835   0.22581   0.64602   0.00000  Uiso   1.00
H635   H     0.90954   0.33782   0.79961   0.00000  Uiso   1.00
H636   H     0.97451   0.19706   0.76625   0.00000  Uiso   1.00
O637   O     0.91163   0.28423   0.76582   0.00000  Uiso   1.00
O638   O     1.00865   0.28635   0.69059   0.00000  Uiso   1.00
H639   H     0.93285   0.28868   0.64154   0.00000  Uiso   1.00
H640   H     0.05265   0.64097   0.96530   0.00000  Uiso   1.00
C641   C     0.71548   0.78536   0.05733   0.00000  Uiso   1.00
C642   C     0.71830   0.78962   0.02211   0.00000  Uiso   1.00
C643   C     0.74669   0.77959   1.00350   0.00000  Uiso   1.00
C644   C     0.77194   0.76448   0.02045   0.00000  Uiso   1.00
C645   C     0.76801   0.75869   0.05560   0.00000  Uiso   1.00
C646   C     0.74002   0.76938   0.07365   0.00000  Uiso   1.00
C647   C     0.75074   0.78623   0.96612   0.00000  Uiso   1.00
C648   C     0.79428   0.74221   0.07416   0.00000  Uiso   1.00
C649   C     0.83191   0.77830   0.00381   0.00000  Uiso   1.00
C650   C     0.86384   0.76814   0.99381   0.00000  Uiso   1.00
C651   C     0.86501   0.73510   0.98189   0.00000  Uiso   1.00
C652   C     0.83430   0.71320   0.97898   0.00000  Uiso   1.00
C653   C     0.80302   0.72439   0.98957   0.00000  Uiso   1.00
C654   C     0.89464   0.78976   0.99661   0.00000  Uiso   1.00
C655   C     0.92626   0.77846   0.98849   0.00000  Uiso   1.00
C656   C     0.92778   0.74536   0.97710   0.00000  Uiso   1.00
C657   C     0.89699   0.72373   0.97342   0.00000  Uiso   1.00
C658   C     0.89812   0.69068   0.96149   0.00000  Uiso   1.00
C659   C     0.86729   0.66927   0.95805   0.00000  Uiso   1.00
C660   C     0.83574   0.68038   0.96676   0.00000  Uiso   1.00
C661   C     0.95928   0.73335   0.96888   0.00000  Uiso   1.00
C662   C     0.93014   0.68000   0.95295   0.00000  Uiso   1.00
C663   C     0.99188   0.69074   0.94424   0.00000  Uiso   1.00
C664   C     0.98671   0.72121   0.88852   0.00000  Uiso   1.00
C665   C     0.03400   0.68694   0.89844   0.00000  Uiso   1.00
C666   C     0.99763   0.66158   0.99978   0.00000  Uiso   1.00
C667   C     0.03931   0.65734   0.95038   0.00000  Uiso   1.00
C668   C     0.00985   0.67010   0.96411   0.00000  Uiso   1.00
C669   C     0.00446   0.69944   0.91128   0.00000  Uiso   1.00
C670   C     0.05134   0.66534   0.91734   0.00000  Uiso   1.00
H671   H     0.97139   0.64770   0.99956   0.00000  Uiso   1.00
N672   N     0.80254   0.75606   0.00275   0.00000  Uiso   1.00
N673   N     0.95986   0.70134   0.95657   0.00000  Uiso   1.00
H674   H     0.99712   0.68493   0.01517   0.00000  Uiso   1.00
H675   H     0.69960   0.80248   0.00960   0.00000  Uiso   1.00
H676   H     0.73784   0.76622   0.10091   0.00000  Uiso   1.00
H677   H     0.72896   0.79829   0.95662   0.00000  Uiso   1.00
H678   H     0.77484   0.80308   0.96107   0.00000  Uiso   1.00
H679   H     0.75193   0.76235   0.95183   0.00000  Uiso   1.00
H680   H     0.81967   0.75766   0.07233   0.00000  Uiso   1.00
H681   H     0.78716   0.73904   0.10149   0.00000  Uiso   1.00
H682   H     0.79650   0.71710   0.06282   0.00000  Uiso   1.00
O683   O     0.77308   0.70287   0.98846   0.00000  Uiso   1.00
O684   O     0.83044   0.81008   0.01659   0.00000  Uiso   1.00
H685   H     0.89447   0.81536   1.00553   0.00000  Uiso   1.00
H686   H     0.81253   0.66308   0.96417   0.00000  Uiso   1.00
H687   H     0.94949   0.79572   0.99123   0.00000  Uiso   1.00
H688   H     0.97966   0.70727   0.86463   0.00000  Uiso   1.00
H689   H     0.96291   0.72920   0.90014   0.00000  Uiso   1.00
H690   H     0.04271   0.69353   0.87290   0.00000  Uiso   1.00
H691   H     0.86743   0.64376   0.94886   0.00000  Uiso   1.00
H692   H     0.01481   0.64581   0.01220   0.00000  Uiso   1.00
O693   O     0.93156   0.64821   0.94017   0.00000  Uiso   1.00
O694   O     0.98953   0.75410   0.97215   0.00000  Uiso   1.00
H695   H     0.00447   0.74398   0.88215   0.00000  Uiso   1.00
H696   H     0.41418   0.46615   0.29326   0.00000  Uiso   1.00
C697   C     0.56985   0.81475   0.18841   0.00000  Uiso   1.00
C698   C     0.58985   0.80489   0.21434   0.00000  Uiso   1.00
C699   C     0.57994   0.77480   0.23144   0.00000  Uiso   1.00
C700   C     0.54951   0.75437   0.22238   0.00000  Uiso   1.00
C701   C     0.52877   0.76495   0.19699   0.00000  Uiso   1.00
C702   C     0.53919   0.79501   0.18024   0.00000  Uiso   1.00
C703   C     0.60260   0.76387   0.25816   0.00000  Uiso   1.00
C704   C     0.49655   0.74347   0.18646   0.00000  Uiso   1.00
C705   C     0.51769   0.71847   0.26434   0.00000  Uiso   1.00
C706   C     0.50734   0.68674   0.27808   0.00000  Uiso   1.00
C707   C     0.52129   0.65871   0.26408   0.00000  Uiso   1.00
C708   C     0.54528   0.66278   0.23673   0.00000  Uiso   1.00
C709   C     0.55454   0.69492   0.22356   0.00000  Uiso   1.00
C710   C     0.48318   0.68233   0.30517   0.00000  Uiso   1.00
C711   C     0.47283   0.65050   0.31801   0.00000  Uiso   1.00
C712   C     0.48652   0.62234   0.30419   0.00000  Uiso   1.00
C713   C     0.51101   0.62649   0.27728   0.00000  Uiso   1.00
C714   C     0.52499   0.59847   0.26332   0.00000  Uiso   1.00
C715   C     0.54916   0.60289   0.23623   0.00000  Uiso   1.00
C716   C     0.55910   0.63464   0.22302   0.00000  Uiso   1.00
C717   C     0.47597   0.58998   0.31627   0.00000  Uiso   1.00
C718   C     0.51403   0.56663   0.27655   0.00000  Uiso   1.00
C719   C     0.47626   0.52974   0.31334   0.00000  Uiso   1.00
C720   C     0.51510   0.53589   0.36461   0.00000  Uiso   1.00
C721   C     0.47119   0.48619   0.35606   0.00000  Uiso   1.00
C722   C     0.43749   0.52385   0.26257   0.00000  Uiso   1.00
C723   C     0.43480   0.48002   0.30729   0.00000  Uiso   1.00
C724   C     0.45017   0.51075   0.29483   0.00000  Uiso   1.00
C725   C     0.48724   0.51697   0.34387   0.00000  Uiso   1.00
C726   C     0.44443   0.46784   0.33832   0.00000  Uiso   1.00
H727   H     0.45867   0.52688   0.24317   0.00000  Uiso   1.00
N728   N     0.54066   0.72195   0.23739   0.00000  Uiso   1.00
N729   N     0.48955   0.56288   0.30220   0.00000  Uiso   1.00
H730   H     0.42807   0.54842   0.26767   0.00000  Uiso   1.00
H731   H     0.61409   0.81967   0.21983   0.00000  Uiso   1.00
H732   H     0.52428   0.80230   0.15952   0.00000  Uiso   1.00
H733   H     0.62507   0.78286   0.26276   0.00000  Uiso   1.00
H734   H     0.58769   0.75986   0.28241   0.00000  Uiso   1.00
H735   H     0.61233   0.74017   0.24992   0.00000  Uiso   1.00
H736   H     0.47824   0.73980   0.20845   0.00000  Uiso   1.00
H737   H     0.48357   0.75500   0.16583   0.00000  Uiso   1.00
H738   H     0.50299   0.71876   0.17710   0.00000  Uiso   1.00
O739   O     0.57727   0.69915   0.19638   0.00000  Uiso   1.00
O740   O     0.50431   0.74601   0.27768   0.00000  Uiso   1.00
H741   H     0.47199   0.70341   0.31638   0.00000  Uiso   1.00
H742   H     0.57758   0.63703   0.20196   0.00000  Uiso   1.00
H743   H     0.45398   0.64804   0.33872   0.00000  Uiso   1.00
H744   H     0.53572   0.51986   0.36841   0.00000  Uiso   1.00
H745   H     0.52696   0.55912   0.35227   0.00000  Uiso   1.00
H746   H     0.47878   0.47727   0.38014   0.00000  Uiso   1.00
H747   H     0.56027   0.58179   0.22495   0.00000  Uiso   1.00
H748   H     0.41604   0.50660   0.25187   0.00000  Uiso   1.00
O749   O     0.52747   0.53910   0.26326   0.00000  Uiso   1.00
O750   O     0.45142   0.58546   0.34187   0.00000  Uiso   1.00
H751   H     0.50419   0.54270   0.38977   0.00000  Uiso   1.00
loop_
_geom_bond_atom_site_label_1
_geom_bond_atom_site_label_2
_geom_bond_distance
_geom_bond_site_symmetry_2
_ccdc_geom_bond_type
Gd0    O3      2.263   .     S
Gd0    O4      2.199   .     S
Gd0    O6      2.234   .     S
Gd0    O7      2.266   .     S
Gd0    O8      2.253   .     S
Gd0    O11     2.248   .     S
Gd1    O2      2.197   .     S
Gd1    O5      2.279   .     S
Gd1    O10     2.209   .     S
Gd1    O13     2.251   .     S
Gd1    O14     2.266   .     S
Gd1    O15     2.227   .     S
O2     C16     1.272   .     A
O3     C16     1.282   .     A
O4     C12     1.263   .     A
O5     C12     1.281   .     A
O6     C9      1.267   .     A
O7     C9      1.264   .     A
O8     C19     1.277   .     A
C9     C558    1.467   .     S
O10    C19     1.269   .     A
O11    C18     1.274   .     A
C12    C390    1.472   .     S
O13    C18     1.268   .     A
O14    C17     1.270   .     A
O15    C17     1.257   .     A
C16    C585    1.483   .     S
C17    C417    1.463   .     S
C18    C670    1.485   .     S
C19    C110    1.484   .     S
Gd20   O23     2.270   .     S
Gd20   O24     2.249   .     S
Gd20   O26     2.172   .     S
Gd20   O27     2.224   .     S
Gd20   O28     2.240   .     S
Gd20   O31     2.249   .     S
Gd21   O22     2.235   .     S
Gd21   O25     2.312   .     S
Gd21   O30     2.233   .     S
Gd21   O33     2.253   .     S
Gd21   O34     2.214   .     S
Gd21   O35     2.215   .     S
O22    C36     1.256   .     A
O23    C36     1.283   .     A
O24    C32     1.274   .     A
O25    C32     1.286   .     A
O26    C29     1.283   .     A
O27    C29     1.294   .     A
O28    C39     1.268   .     A
C29    C641    1.472   .     S
O30    C39     1.268   .     A
O31    C38     1.282   .     A
C32    C697    1.468   .     S
O33    C38     1.282   .     A
O34    C37     1.277   .     A
O35    C37     1.277   .     A
C36    C81     1.465   .     S
C37    C166    1.463   .     S
C38    C278    1.461   .     S
C39    C334    1.480   .     S
Gd40   O43     2.259   .     S
Gd40   O44     2.197   .     S
Gd40   O46     2.252   .     S
Gd40   O47     2.251   .     S
Gd40   O48     2.252   .     S
Gd40   O51     2.241   .     S
Gd41   O42     2.193   .     S
Gd41   O45     2.262   .     S
Gd41   O50     2.201   .     S
Gd41   O53     2.230   .     S
Gd41   O54     2.266   .     S
Gd41   O55     2.221   .     S
O42    C56     1.269   .     A
O43    C56     1.280   .     A
O44    C52     1.263   .     A
O45    C52     1.278   .     A
O46    C49     1.268   .     A
O47    C49     1.262   .     A
O48    C59     1.278   .     A
C49    C529    1.461   .     S
O50    C59     1.268   .     A
O51    C58     1.272   .     A
C52    C502    1.466   .     S
O53    C58     1.263   .     A
O54    C57     1.268   .     A
O55    C57     1.255   .     A
C56    C614    1.473   .     S
C57    C193    1.462   .     S
C58    C249    1.463   .     S
C59    C305    1.481   .     S
Gd60   O63     2.255   .     S
Gd60   O64     2.216   .     S
Gd60   O66     2.232   .     S
Gd60   O67     2.278   .     S
Gd60   O68     2.227   .     S
Gd60   O71     2.220   .     S
Gd61   O62     2.214   .     S
Gd61   O65     2.241   .     S
Gd61   O70     2.262   .     S
Gd61   O73     2.246   .     S
Gd61   O74     2.259   .     S
Gd61   O75     2.240   .     S
O62    C76     1.267   .     A
O63    C76     1.277   .     A
O64    C72     1.273   .     A
O65    C72     1.276   .     A
O66    C69     1.250   .     A
O67    C69     1.263   .     A
O68    C79     1.263   .     A
C69    C446    1.473   .     S
O70    C79     1.278   .     A
O71    C78     1.271   .     A
C72    C473    1.466   .     S
O73    C78     1.276   .     A
O74    C77     1.265   .     A
O75    C77     1.270   .     A
C76    C361    1.471   .     S
C77    C222    1.475   .     S
C78    C726    1.487   .     S
C79    C137    1.478   .     S
H80    C107    1.084   .     S
C81    C82     1.399   .     A
C81    C86     1.400   .     A
C82    C83     1.401   .     A
C82    H115    1.084   .     S
C83    C84     1.412   .     A
C83    C87     1.506   1_554 S
C84    C85     1.414   .     A
C84    N112    1.442   .     S
C85    C86     1.405   .     A
C85    C88     1.505   .     S
C86    H116    1.083   .     S
C87    H117    1.111   .     S
C87    H118    1.110   .     S
C87    H119    1.110   .     S
C87    C83     1.506   1_556 S
C88    H120    1.110   .     S
C88    H121    1.111   .     S
C88    H122    1.110   .     S
C89    C90     1.408   .     A
C89    O124    1.372   .     S
C89    N112    1.369   1_556 A
C90    C91     1.410   .     A
C90    C94     1.405   .     A
C91    C97     1.415   .     A
C91    C92     1.408   1_556 A
C92    C93     1.404   .     A
C92    C100    1.406   .     A
C92    C91     1.408   1_554 A
C93    N112    1.372   .     A
C93    O123    1.374   .     S
C94    C95     1.398   .     A
C94    H125    1.083   .     S
C95    C96     1.406   .     A
C95    H127    1.083   .     S
C96    C97     1.408   .     A
C96    C101    1.406   .     A
C97    C98     1.409   .     A
C98    C102    1.407   .     A
C98    C99     1.405   1_556 A
C99    C100    1.397   .     A
C99    H131    1.083   .     S
C99    C98     1.405   1_554 A
C100   H126    1.083   .     S
C101   N113    1.372   .     A
C101   O134    1.373   .     S
C102   N113    1.371   .     A
C102   O133    1.373   .     S
C103   C108    1.411   .     A
C103   C109    1.417   .     A
C103   N113    1.444   .     S
C104   C109    1.505   .     S
C104   H128    1.110   .     S
C104   H129    1.109   .     S
C104   H135    1.110   .     S
C105   C109    1.408   .     A
C105   C110    1.403   .     A
C105   H130    1.083   .     S
C106   C108    1.507   .     S
C106   H111    1.110   .     S
C106   H114    1.110   .     S
C106   H132    1.111   .     S
C107   C108    1.399   .     A
C107   C110    1.405   .     A
N112   C89     1.369   1_554 A
H136   C163    1.085   .     S
C137   C138    1.401   .     A
C137   C142    1.404   .     A
C138   C139    1.398   .     A
C138   H171    1.081   .     S
C139   C140    1.410   .     A
C139   C143    1.506   .     S
C140   C141    1.413   .     A
C140   N168    1.440   .     S
C141   C142    1.407   .     A
C141   C144    1.504   .     S
C142   H172    1.084   .     S
C143   H173    1.110   .     S
C143   H174    1.110   .     S
C143   H175    1.110   .     S
C144   H176    1.110   .     S
C144   H177    1.111   .     S
C144   H178    1.110   .     S
C145   C146    1.405   .     A
C145   N168    1.370   .     A
C145   O180    1.373   .     S
C146   C147    1.409   .     A
C146   C150    1.405   .     A
C147   C148    1.409   .     A
C147   C153    1.414   .     A
C148   C149    1.405   .     A
C148   C156    1.405   .     A
C149   N168    1.369   .     A
C149   O179    1.373   .     S
C150   C151    1.397   .     A
C150   H181    1.083   .     S
C151   C152    1.405   .     A
C151   H183    1.083   .     S
C152   C153    1.409   .     A
C152   C157    1.406   .     A
C153   C154    1.409   .     A
C154   C155    1.405   .     A
C154   C158    1.404   .     A
C155   C156    1.397   .     A
C155   H187    1.083   .     S
C156   H182    1.083   .     S
C157   N169    1.370   .     A
C157   O190    1.373   .     S
C158   N169    1.370   .     A
C158   O189    1.373   .     S
C159   C164    1.411   .     A
C159   C165    1.418   .     A
C159   N169    1.440   .     S
C160   C165    1.505   .     S
C160   H184    1.110   .     S
C160   H185    1.109   .     S
C160   H191    1.110   1_545 S
C161   C166    1.399   .     A
C161   H186    1.083   .     S
C161   C165    1.408   1_565 A
C162   C164    1.507   .     S
C162   H167    1.111   .     S
C162   H170    1.110   .     S
C162   H188    1.111   .     S
C163   C166    1.397   .     A
C163   C164    1.397   1_565 A
C164   C163    1.397   1_545 A
C165   C161    1.408   1_545 A
H191   C160    1.110   1_565 S
H192   C219    1.083   .     S
C193   C194    1.401   .     A
C193   C198    1.399   .     A
C194   C195    1.405   .     A
C194   H227    1.084   .     S
C195   C196    1.413   .     A
C195   C199    1.506   .     S
C196   C197    1.411   .     A
C196   N224    1.438   .     S
C197   C198    1.398   .     A
C197   C200    1.506   .     S
C198   H228    1.085   .     S
C199   H229    1.111   .     S
C199   H230    1.110   .     S
C199   H231    1.110   .     S
C200   H232    1.110   .     S
C200   H233    1.110   .     S
C200   H234    1.110   .     S
C201   C202    1.405   .     A
C201   N224    1.371   .     A
C201   O236    1.373   .     S
C202   C203    1.408   .     A
C202   C206    1.406   .     A
C203   C204    1.409   .     A
C203   C209    1.413   .     A
C204   C205    1.402   .     A
C204   C212    1.404   .     A
C205   N224    1.368   .     A
C205   O235    1.373   .     S
C206   C207    1.398   .     A
C206   H237    1.083   .     S
C207   C208    1.406   .     A
C207   H239    1.084   .     S
C208   C209    1.409   .     A
C208   C213    1.406   .     A
C209   C210    1.408   .     A
C210   C211    1.404   .     A
C210   C214    1.402   .     A
C211   C212    1.395   .     A
C211   H243    1.083   .     S
C212   H238    1.083   .     S
C213   N225    1.370   .     A
C213   O246    1.373   .     S
C214   N225    1.369   .     A
C214   O245    1.373   .     S
C215   C220    1.414   .     A
C215   C221    1.411   .     A
C215   N225    1.438   .     S
C216   C221    1.507   .     S
C216   H240    1.110   .     S
C216   H241    1.108   .     S
C216   H247    1.109   .     S
C217   C221    1.396   .     A
C217   C222    1.401   .     A
C217   H242    1.081   .     S
C218   C220    1.505   .     S
C218   H223    1.110   .     S
C218   H226    1.110   .     S
C218   H244    1.111   .     S
C219   C220    1.406   .     A
C219   C222    1.401   .     A
H248   C275    1.085   .     S
C249   C250    1.399   .     A
C249   C254    1.399   .     A
C250   C251    1.396   .     A
C250   H283    1.084   .     S
C251   C252    1.410   .     A
C251   C255    1.506   .     S
C252   C253    1.413   .     A
C252   N280    1.437   .     S
C253   C254    1.405   .     A
C253   C256    1.503   .     S
C254   H284    1.084   .     S
C255   H285    1.111   .     S
C255   H286    1.110   .     S
C255   H287    1.110   .     S
C256   H288    1.109   .     S
C256   H289    1.110   .     S
C256   H290    1.111   1_545 S
C257   C258    1.403   .     A
C257   N280    1.369   .     A
C257   O292    1.373   .     S
C258   C259    1.409   .     A
C258   C262    1.405   .     A
C259   C260    1.409   1_545 A
C259   C265    1.412   1_545 A
C260   C261    1.403   .     A
C260   C268    1.405   .     A
C260   C259    1.409   1_565 A
C261   O291    1.373   .     S
C261   N280    1.369   1_565 A
C262   C263    1.396   .     A
C262   H293    1.083   .     S
C263   C264    1.405   .     A
C263   H295    1.083   .     S
C264   C269    1.404   .     A
C264   C265    1.409   1_545 A
C265   C266    1.409   .     A
C265   C259    1.412   1_565 A
C265   C264    1.409   1_565 A
C266   C267    1.405   .     A
C266   C270    1.403   .     A
C267   C268    1.396   .     A
C267   H299    1.083   .     S
C268   H294    1.083   .     S
C269   O302    1.373   .     S
C269   N281    1.369   1_545 A
C270   N281    1.369   .     A
C270   O301    1.373   .     S
C271   C276    1.411   .     A
C271   N281    1.437   .     S
C271   C277    1.417   1_556 A
C272   C277    1.505   .     S
C272   H296    1.110   .     S
C272   H297    1.109   1_564 S
C272   H303    1.110   1_565 S
C273   C277    1.406   .     A
C273   C278    1.398   .     A
C273   H298    1.084   .     S
C274   C276    1.507   .     S
C274   H279    1.110   .     S
C274   H282    1.110   .     S
C274   H300    1.111   .     S
C275   C278    1.397   .     A
C275   C276    1.396   1_554 A
C276   C275    1.396   1_556 A
C277   C271    1.417   1_554 A
N280   C261    1.369   1_545 A
N281   C269    1.369   1_565 A
H290   C256    1.111   1_565 S
H297   C272    1.109   1_546 S
H303   C272    1.110   1_545 S
H304   C331    1.077   .     S
C305   C306    1.404   .     A
C305   C310    1.406   .     A
C306   C307    1.408   .     A
C306   H339    1.083   .     S
C307   C308    1.413   .     A
C307   C311    1.504   .     S
C308   C309    1.408   .     A
C308   N336    1.440   .     S
C309   C310    1.398   .     A
C309   C312    1.508   .     S
C310   H340    1.082   .     S
C311   H343    1.110   .     S
C311   H341    1.111   1_545 S
C311   H342    1.110   1_545 S
C312   H344    1.109   .     S
C312   H345    1.111   .     S
C312   H346    1.110   .     S
C313   C314    1.403   .     A
C313   O348    1.373   .     S
C313   N336    1.369   1_565 A
C314   C315    1.409   .     A
C314   C318    1.404   .     A
C315   C321    1.414   .     A
C315   C316    1.409   1_565 A
C316   C317    1.407   .     A
C316   C324    1.407   .     A
C316   C315    1.409   1_545 A
C317   N336    1.371   .     A
C317   O347    1.373   .     S
C318   C319    1.395   .     A
C318   H349    1.083   .     S
C319   C320    1.404   .     A
C319   H351    1.083   .     S
C320   C321    1.409   .     A
C320   C325    1.402   .     A
C321   C322    1.410   1_565 A
C322   C323    1.405   .     A
C322   C321    1.410   1_545 A
C322   C326    1.407   1_545 A
C323   C324    1.399   .     A
C323   H355    1.083   .     S
C324   H350    1.083   .     S
C325   N337    1.369   .     A
C325   O358    1.374   .     S
C326   N337    1.370   .     A
C326   C322    1.407   1_565 A
C326   O357    1.373   1_565 S
C327   C332    1.411   .     A
C327   C333    1.411   .     A
C327   N337    1.438   .     S
C328   C333    1.505   .     S
C328   H352    1.110   .     S
C328   H353    1.108   .     S
C328   H359    1.110   .     S
C329   C333    1.397   .     A
C329   C334    1.404   .     A
C329   H354    1.085   .     S
C330   C332    1.503   .     S
C330   H338    1.110   .     S
C330   H356    1.109   .     S
C330   H335    1.110   1_565 S
C331   C332    1.404   .     A
C331   C334    1.402   .     A
H335   C330    1.110   1_545 S
N336   C313    1.369   1_545 A
H341   C311    1.111   1_565 S
H342   C311    1.110   1_565 S
O357   C326    1.373   1_545 S
H360   C387    1.084   .     S
C361   C362    1.401   .     A
C361   C366    1.400   .     A
C362   C363    1.405   .     A
C362   H395    1.084   .     S
C363   C364    1.414   .     A
C363   C367    1.506   .     S
C364   C365    1.414   .     A
C364   N392    1.446   .     S
C365   C366    1.405   .     A
C365   C368    1.505   .     S
C366   H396    1.084   .     S
C367   H397    1.111   .     S
C367   H398    1.111   .     S
C367   H399    1.109   .     S
C368   H400    1.110   .     S
C368   H401    1.111   .     S
C368   H402    1.110   .     S
C369   C370    1.407   .     A
C369   N392    1.372   .     A
C369   O404    1.373   .     S
C370   C371    1.407   .     A
C370   C374    1.406   .     A
C371   C372    1.410   .     A
C371   C377    1.417   .     A
C372   C373    1.409   .     A
C372   C380    1.405   .     A
C373   N392    1.370   .     A
C373   O403    1.373   .     S
C374   C375    1.399   .     A
C374   H405    1.083   .     S
C375   C376    1.405   .     A
C375   H407    1.083   .     S
C376   C377    1.410   .     A
C376   C381    1.409   .     A
C377   C378    1.407   .     A
C378   C379    1.407   .     A
C378   C382    1.407   .     A
C379   C380    1.399   .     A
C379   H411    1.083   .     S
C380   H406    1.083   .     S
C381   N393    1.370   .     A
C381   O414    1.373   .     S
C382   N393    1.372   .     A
C382   O413    1.373   .     S
C383   C388    1.413   .     A
C383   C389    1.417   .     A
C383   N393    1.446   .     S
C384   C389    1.505   .     S
C384   H408    1.111   .     S
C384   H409    1.108   .     S
C384   H415    1.110   .     S
C385   C389    1.408   .     A
C385   C390    1.401   .     A
C385   H410    1.084   .     S
C386   C388    1.506   .     S
C386   H391    1.110   .     S
C386   H394    1.110   .     S
C386   H412    1.111   .     S
C387   C388    1.403   .     A
C387   C390    1.401   .     A
H416   C443    1.084   .     S
C417   C418    1.400   .     A
C417   C422    1.398   .     A
C418   H451    1.085   .     S
C418   C419    1.400   1_556 A
C419   C420    1.411   .     A
C419   C423    1.507   .     S
C419   C418    1.400   1_554 A
C420   N448    1.442   .     S
C420   C421    1.416   1_554 A
C421   C422    1.407   .     A
C421   C424    1.504   .     S
C421   C420    1.416   1_556 A
C422   H452    1.084   .     S
C423   H453    1.111   .     S
C423   H454    1.110   .     S
C423   H455    1.109   .     S
C424   H457    1.110   .     S
C424   H458    1.110   .     S
C424   H456    1.110   1_556 S
C425   C426    1.404   .     A
C425   N448    1.371   .     A
C425   O460    1.374   .     S
C426   C427    1.408   .     A
C426   C430    1.405   .     A
C427   C428    1.410   .     A
C427   C433    1.415   .     A
C428   C429    1.408   .     A
C428   C436    1.406   .     A
C429   N448    1.370   .     A
C429   O459    1.373   .     S
C430   C431    1.396   .     A
C430   H461    1.083   .     S
C431   C432    1.404   .     A
C431   H463    1.083   .     S
C432   C433    1.409   .     A
C432   C437    1.405   .     A
C433   C434    1.408   .     A
C434   C435    1.406   .     A
C434   C438    1.407   .     A
C435   C436    1.399   .     A
C435   H467    1.083   .     S
C436   H462    1.083   .     S
C437   N449    1.369   .     A
C437   O470    1.373   .     S
C438   N449    1.372   .     A
C438   O469    1.373   .     S
C439   C444    1.412   .     A
C439   C445    1.416   .     A
C439   N449    1.442   .     S
C440   C445    1.505   .     S
C440   H464    1.111   .     S
C440   H465    1.109   .     S
C440   H471    1.110   .     S
C441   C445    1.406   .     A
C441   C446    1.401   .     A
C441   H466    1.084   .     S
C442   C444    1.507   .     S
C442   H447    1.110   .     S
C442   H450    1.110   .     S
C442   H468    1.111   .     S
C443   C444    1.400   .     A
C443   C446    1.402   .     A
H456   C424    1.110   1_554 S
H472   C499    1.084   .     S
C473   C474    1.399   .     A
C473   C478    1.398   .     A
C474   C475    1.403   .     A
C474   H507    1.084   .     S
C475   C476    1.413   .     A
C475   C479    1.505   .     S
C476   C477    1.414   .     A
C476   N504    1.442   .     S
C477   C478    1.403   .     A
C477   C480    1.505   .     S
C478   H508    1.083   .     S
C479   H509    1.110   .     S
C479   H510    1.110   .     S
C479   H511    1.109   .     S
C480   H512    1.109   .     S
C480   H513    1.111   .     S
C480   H514    1.111   .     S
C481   C482    1.402   .     A
C481   N504    1.371   .     A
C481   O516    1.374   .     S
C482   C483    1.408   .     A
C482   C486    1.405   .     A
C483   C484    1.410   .     A
C483   C489    1.414   .     A
C484   C485    1.409   .     A
C484   C492    1.406   .     A
C485   N504    1.371   .     A
C485   O515    1.373   .     S
C486   C487    1.395   .     A
C486   H517    1.083   .     S
C487   C488    1.404   .     A
C487   H519    1.083   .     S
C488   C489    1.410   .     A
C488   C493    1.404   .     A
C489   C490    1.408   .     A
C490   C491    1.406   .     A
C490   C494    1.406   .     A
C491   C492    1.399   .     A
C491   H523    1.083   .     S
C492   H518    1.083   .     S
C493   N505    1.368   .     A
C493   O526    1.373   .     S
C494   N505    1.371   .     A
C494   O525    1.373   .     S
C495   N505    1.439   .     S
C495   C500    1.412   1_455 A
C495   C501    1.416   1_455 A
C496   C501    1.506   .     S
C496   H520    1.111   .     S
C496   H527    1.110   .     S
C496   H521    1.109   1_655 S
C497   C501    1.404   .     A
C497   C502    1.400   .     A
C497   H522    1.085   .     S
C498   H503    1.111   .     S
C498   H506    1.110   .     S
C498   H524    1.111   .     S
C498   C500    1.507   1_455 S
C499   C500    1.400   .     A
C499   C502    1.401   .     A
C500   C495    1.412   1_655 A
C500   C498    1.507   1_655 S
C501   C495    1.416   1_655 A
H521   C496    1.109   1_455 S
H528   C555    1.084   .     S
C529   C534    1.399   .     A
C529   C530    1.396   1_545 A
C530   C531    1.400   .     A
C530   H563    1.084   .     S
C530   C529    1.396   1_565 A
C531   C532    1.412   .     A
C531   C535    1.505   .     S
C532   C533    1.413   .     A
C532   N560    1.439   .     S
C533   C536    1.505   .     S
C533   C534    1.405   1_565 A
C534   H564    1.084   .     S
C534   C533    1.405   1_545 A
C535   H565    1.111   .     S
C535   H566    1.110   .     S
C535   H567    1.111   .     S
C536   H568    1.110   .     S
C536   H570    1.110   .     S
C536   H569    1.111   1_565 S
C537   N560    1.369   .     A
C537   C538    1.402   1_655 A
C537   O572    1.373   1_655 S
C538   C542    1.405   .     A
C538   C537    1.402   1_455 A
C538   C539    1.409   1_455 A
C539   C540    1.409   .     A
C539   C538    1.409   1_655 A
C539   C545    1.413   1_655 A
C540   C541    1.406   .     A
C540   C548    1.406   .     A
C541   N560    1.370   .     A
C541   O571    1.373   .     S
C542   C543    1.395   .     A
C542   H573    1.083   .     S
C543   C544    1.404   .     A
C543   H575    1.083   .     S
C544   C545    1.409   .     A
C544   C549    1.403   .     A
C545   C539    1.413   1_455 A
C545   C546    1.409   1_455 A
C546   C547    1.406   .     A
C546   C545    1.409   1_655 A
C546   C550    1.406   1_655 A
C547   C548    1.398   .     A
C547   H579    1.083   .     S
C548   H574    1.083   .     S
C549   N561    1.369   .     A
C549   O582    1.373   .     S
C550   N561    1.370   .     A
C550   C546    1.406   1_455 A
C550   O581    1.373   1_455 S
C551   C556    1.412   .     A
C551   C557    1.417   .     A
C551   N561    1.439   .     S
C552   C557    1.505   .     S
C552   H576    1.111   .     S
C552   H577    1.109   .     S
C552   H583    1.110   .     S
C553   C557    1.404   .     A
C553   C558    1.398   .     A
C553   H578    1.084   .     S
C554   C556    1.507   .     S
C554   H559    1.109   .     S
C554   H562    1.111   .     S
C554   H580    1.111   .     S
C555   C556    1.397   .     A
C555   C558    1.400   .     A
H569   C536    1.111   1_545 S
O572   C537    1.373   1_455 S
O581   C550    1.373   1_655 S
H584   C611    1.084   .     S
C585   C586    1.404   .     A
C585   C590    1.405   .     A
C586   C587    1.411   .     A
C586   H619    1.083   .     S
C587   C588    1.413   .     A
C587   C591    1.503   1_455 S
C588   C589    1.408   .     A
C588   N616    1.441   .     S
C589   C590    1.396   .     A
C589   C592    1.507   .     S
C590   H620    1.083   .     S
C591   H621    1.111   .     S
C591   H623    1.111   .     S
C591   C587    1.503   1_655 S
C591   H622    1.110   1_655 S
C592   H624    1.110   .     S
C592   H625    1.110   .     S
C592   H626    1.110   .     S
C593   C594    1.404   .     A
C593   N616    1.370   .     A
C593   O628    1.373   .     S
C594   C598    1.405   .     A
C594   C595    1.409   1_455 A
C595   C596    1.409   .     A
C595   C601    1.414   .     A
C595   C594    1.409   1_655 A
C596   C597    1.407   .     A
C596   C604    1.406   .     A
C597   O627    1.373   .     S
C597   N616    1.370   1_655 A
C598   C599    1.396   .     A
C598   H629    1.083   .     S
C599   H631    1.083   .     S
C599   C600    1.405   1_455 A
C600   C601    1.409   .     A
C600   C605    1.404   .     A
C600   C599    1.405   1_655 A
C601   C602    1.409   .     A
C602   C603    1.406   .     A
C602   C606    1.407   .     A
C603   C604    1.398   .     A
C603   H635    1.083   .     S
C604   H630    1.083   .     S
C605   N617    1.370   .     A
C605   O638    1.373   .     S
C606   N617    1.371   .     A
C606   O637    1.373   .     S
C607   C612    1.416   .     A
C607   C613    1.410   .     A
C607   N617    1.440   .     S
C608   C613    1.509   .     S
C608   H632    1.111   .     S
C608   H633    1.107   .     S
C608   H639    1.110   .     S
C609   C613    1.393   .     A
C609   C614    1.402   .     A
C609   H634    1.085   .     S
C610   C612    1.503   .     S
C610   H615    1.111   .     S
C610   H618    1.110   .     S
C610   H636    1.110   .     S
C611   C612    1.412   .     A
C611   C614    1.400   .     A
N616   C597    1.370   1_455 A
H622   C591    1.110   1_455 S
H640   C667    1.083   .     S
C641   C642    1.401   .     A
C641   C646    1.400   .     A
C642   H675    1.083   .     S
C642   C643    1.410   1_554 A
C643   C647    1.503   .     S
C643   C642    1.410   1_556 A
C643   C644    1.415   1_556 A
C644   C645    1.410   .     A
C644   N672    1.442   .     S
C644   C643    1.415   1_554 A
C645   C646    1.397   .     A
C645   C648    1.507   .     S
C646   H676    1.084   .     S
C647   H677    1.110   .     S
C647   H678    1.110   .     S
C647   H679    1.110   .     S
C648   H680    1.109   .     S
C648   H681    1.110   .     S
C648   H682    1.110   .     S
C649   N672    1.371   .     A
C649   O684    1.373   .     S
C649   C650    1.407   1_554 A
C650   C651    1.408   .     A
C650   C654    1.406   .     A
C650   C649    1.407   1_556 A
C651   C652    1.409   .     A
C651   C657    1.415   .     A
C652   C653    1.406   .     A
C652   C660    1.405   .     A
C653   O683    1.373   .     S
C653   N672    1.370   1_556 A
C654   C655    1.398   .     A
C654   H685    1.083   .     S
C655   C656    1.406   .     A
C655   H687    1.083   .     S
C656   C657    1.409   .     A
C656   C661    1.407   .     A
C657   C658    1.408   .     A
C658   C659    1.405   .     A
C658   C662    1.405   .     A
C659   C660    1.397   .     A
C659   H691    1.083   .     S
C660   H686    1.083   .     S
C661   N673    1.371   .     A
C661   O694    1.373   .     S
C662   N673    1.371   .     A
C662   O693    1.373   .     S
C663   N673    1.442   .     S
C663   C668    1.416   1_655 A
C663   C669    1.411   1_655 A
C664   H688    1.110   .     S
C664   H689    1.107   .     S
C664   C669    1.509   1_655 S
C664   H695    1.111   1_655 S
C665   C669    1.396   .     A
C665   C670    1.406   .     A
C665   H690    1.081   .     S
C666   H671    1.110   .     S
C666   C668    1.504   1_655 S
C666   H674    1.110   1_556 S
C666   H692    1.111   1_656 S
C667   C668    1.410   .     A
C667   C670    1.402   .     A
C668   C663    1.416   1_455 A
C668   C666    1.504   1_455 S
C669   C663    1.411   1_455 A
C669   C664    1.509   1_455 S
N672   C653    1.370   1_554 A
H674   C666    1.110   1_554 S
H692   C666    1.111   1_454 S
H695   C664    1.111   1_455 S
H696   C723    1.084   .     S
C697   C698    1.399   .     A
C697   C702    1.400   .     A
C698   C699    1.407   .     A
C698   H731    1.083   .     S
C699   C700    1.415   .     A
C699   C703    1.504   .     S
C700   C701    1.412   .     A
C700   N728    1.445   .     S
C701   C702    1.403   .     A
C701   C704    1.505   .     S
C702   H732    1.084   .     S
C703   H733    1.111   .     S
C703   H734    1.110   .     S
C703   H735    1.110   .     S
C704   H736    1.110   .     S
C704   H737    1.111   .     S
C704   H738    1.110   .     S
C705   C706    1.408   .     A
C705   N728    1.370   .     A
C705   O740    1.373   .     S
C706   C707    1.409   .     A
C706   C710    1.405   .     A
C707   C708    1.408   .     A
C707   C713    1.417   .     A
C708   C709    1.408   .     A
C708   C716    1.406   .     A
C709   N728    1.372   .     A
C709   O739    1.373   .     S
C710   C711    1.398   .     A
C710   H741    1.083   .     S
C711   C712    1.406   .     A
C711   H743    1.083   .     S
C712   C713    1.408   .     A
C712   C717    1.408   .     A
C713   C714    1.409   .     A
C714   C715    1.406   .     A
C714   C718    1.409   .     A
C715   C716    1.399   .     A
C715   H747    1.083   .     S
C716   H742    1.083   .     S
C717   N729    1.372   .     A
C717   O750    1.373   .     S
C718   N729    1.371   .     A
C718   O749    1.373   .     S
C719   C724    1.412   .     A
C719   C725    1.417   .     A
C719   N729    1.446   .     S
C720   C725    1.505   .     S
C720   H744    1.110   .     S
C720   H745    1.109   .     S
C720   H751    1.110   .     S
C721   C725    1.408   .     A
C721   C726    1.403   .     A
C721   H746    1.084   .     S
C722   C724    1.507   .     S
C722   H727    1.109   .     S
C722   H730    1.110   .     S
C722   H748    1.111   .     S
C723   C724    1.402   .     A
C723   C726    1.406   .     A
