data_lcy+N106+E229
_audit_creation_date              2025-01-21
_audit_creation_method            'Materials Studio'
_symmetry_space_group_name_H-M    'P1'
_symmetry_Int_Tables_number       1
_symmetry_cell_setting            triclinic
loop_
_symmetry_equiv_pos_as_xyz
  x,y,z
_cell_length_a                    36.8812
_cell_length_b                    39.2068
_cell_length_c                    37.7686
_cell_angle_alpha                 97.3677
_cell_angle_beta                  95.3421
_cell_angle_gamma                 93.0615
loop_
_atom_site_label
_atom_site_type_symbol
_atom_site_fract_x
_atom_site_fract_y
_atom_site_fract_z
_atom_site_U_iso_or_equiv
_atom_site_adp_type
_atom_site_occupancy
Y0     Y     0.10726   0.64453   0.81879   0.00000  Uiso   1.00
Y1     Y     0.13801   0.60371   0.88210   0.00000  Uiso   1.00
O2     O     0.15402   0.61713   0.79630   0.00000  Uiso   1.00
O3     O     0.09598   0.59111   0.83435   0.00000  Uiso   1.00
C4     C     0.16861   0.59153   0.94629   0.00000  Uiso   1.00
O5     O     0.13711   0.55526   0.84195   0.00000  Uiso   1.00
O6     O     0.08319   0.68941   0.79517   0.00000  Uiso   1.00
O7     O     0.07958   0.64159   0.76253   0.00000  Uiso   1.00
O8     O     0.18511   0.61111   0.84896   0.00000  Uiso   1.00
O9     O     0.12949   0.65950   0.87639   0.00000  Uiso   1.00
O10    O     0.15778   0.68105   0.83700   0.00000  Uiso   1.00
O11    O     0.05980   0.64323   0.85298   0.00000  Uiso   1.00
C12    C     0.18327   0.61068   0.81478   0.00000  Uiso   1.00
O13    O     0.08225   0.61531   0.89817   0.00000  Uiso   1.00
C14    C     0.11186   0.56163   0.82138   0.00000  Uiso   1.00
O15    O     0.14304   0.57221   0.92822   0.00000  Uiso   1.00
O16    O     0.17857   0.61649   0.93073   0.00000  Uiso   1.00
C17    C     0.07237   0.67281   0.76484   0.00000  Uiso   1.00
C18    C     0.05670   0.63071   0.88253   0.00000  Uiso   1.00
C19    C     0.15860   0.67944   0.86885   0.00000  Uiso   1.00
Y20    Y     0.65857   0.86202   0.11478   0.00000  Uiso   1.00
Y21    Y     0.59159   0.90902   0.12929   0.00000  Uiso   1.00
O22    O     0.61623   0.82512   0.13156   0.00000  Uiso   1.00
O23    O     0.60943   0.87709   0.08080   0.00000  Uiso   1.00
C24    C     0.54654   0.95385   0.15841   0.00000  Uiso   1.00
O25    O     0.55509   0.86727   0.09372   0.00000  Uiso   1.00
O26    O     0.71631   0.84663   0.10970   0.00000  Uiso   1.00
O27    O     0.67432   0.82116   0.07267   0.00000  Uiso   1.00
O28    O     0.58480   0.86493   0.16155   0.00000  Uiso   1.00
O29    O     0.65060   0.90983   0.15191   0.00000  Uiso   1.00
O30    O     0.67020   0.86684   0.17573   0.00000  Uiso   1.00
O31    O     0.67408   0.91102   0.09213   0.00000  Uiso   1.00
C32    C     0.59200   0.83357   0.15285   0.00000  Uiso   1.00
O33    O     0.62657   0.94417   0.10177   0.00000  Uiso   1.00
C34    C     0.57744   0.85674   0.07414   0.00000  Uiso   1.00
O35    O     0.55013   0.94942   0.12518   0.00000  Uiso   1.00
O36    O     0.56675   0.93589   0.17616   0.00000  Uiso   1.00
C37    C     0.70813   0.82457   0.08220   0.00000  Uiso   1.00
C38    C     0.65763   0.93895   0.09009   0.00000  Uiso   1.00
C39    C     0.66039   0.89585   0.18250   0.00000  Uiso   1.00
Y40    Y     0.82845   0.10800   0.67416   0.00000  Uiso   1.00
Y41    Y     0.89085   0.14727   0.63842   0.00000  Uiso   1.00
O42    O     0.79875   0.14626   0.64357   0.00000  Uiso   1.00
O43    O     0.85605   0.09789   0.62336   0.00000  Uiso   1.00
C44    C     0.94692   0.18610   0.62071   0.00000  Uiso   1.00
O45    O     0.85324   0.13428   0.58613   0.00000  Uiso   1.00
O46    O     0.77681   0.07328   0.66244   0.00000  Uiso   1.00
O47    O     0.80504   0.07697   0.71391   0.00000  Uiso   1.00
O48    O     0.84660   0.18420   0.64382   0.00000  Uiso   1.00
O49    O     0.87937   0.14147   0.69544   0.00000  Uiso   1.00
O50    O     0.82902   0.15613   0.71482   0.00000  Uiso   1.00
O51    O     0.87565   0.07341   0.67866   0.00000  Uiso   1.00
C52    C     0.81214   0.17628   0.63969   0.00000  Uiso   1.00
O53    O     0.92169   0.10520   0.66065   0.00000  Uiso   1.00
C54    C     0.84019   0.10683   0.59206   0.00000  Uiso   1.00
O55    O     0.92958   0.19460   0.64741   0.00000  Uiso   1.00
O56    O     0.93601   0.15686   0.60389   0.00000  Uiso   1.00
C57    C     0.77785   0.06350   0.69304   0.00000  Uiso   1.00
C58    C     0.90944   0.07863   0.67376   0.00000  Uiso   1.00
C59    C     0.86109   0.16496   0.71580   0.00000  Uiso   1.00
Y60    Y     0.41409   0.41405   0.37284   0.00000  Uiso   1.00
Y61    Y     0.36119   0.34543   0.36362   0.00000  Uiso   1.00
O62    O     0.43868   0.38194   0.41346   0.00000  Uiso   1.00
O63    O     0.41086   0.36211   0.33785   0.00000  Uiso   1.00
C64    C     0.30575   0.29724   0.36025   0.00000  Uiso   1.00
O65    O     0.41181   0.31499   0.36061   0.00000  Uiso   1.00
O66    O     0.43173   0.46933   0.36752   0.00000  Uiso   1.00
O67    O     0.47221   0.43392   0.37135   0.00000  Uiso   1.00
O68    O     0.38781   0.35029   0.42022   0.00000  Uiso   1.00
O69    O     0.35473   0.40242   0.37969   0.00000  Uiso   1.00
O70    O     0.38818   0.43009   0.42439   0.00000  Uiso   1.00
O71    O     0.38300   0.41479   0.31821   0.00000  Uiso   1.00
C72    C     0.42078   0.36188   0.43086   0.00000  Uiso   1.00
O73    O     0.34145   0.36985   0.31522   0.00000  Uiso   1.00
C74    C     0.43034   0.33501   0.34683   0.00000  Uiso   1.00
O75    O     0.31284   0.32149   0.38573   0.00000  Uiso   1.00
O76    O     0.32702   0.29827   0.33602   0.00000  Uiso   1.00
C77    C     0.46540   0.46454   0.36787   0.00000  Uiso   1.00
C78    C     0.35535   0.39559   0.30214   0.00000  Uiso   1.00
C79    C     0.35799   0.41633   0.41520   0.00000  Uiso   1.00
C80    C     0.53113   0.77676   0.01758   0.00000  Uiso   1.00
C81    C     0.55627   0.76987  -0.00769   0.00000  Uiso   1.00
C82    C     0.58845   0.79081  -0.00579   0.00000  Uiso   1.00
C83    C     0.59561   0.81903   0.02107   0.00000  Uiso   1.00
C84    C     0.57045   0.82661   0.04618   0.00000  Uiso   1.00
C85    C     0.53845   0.80512   0.04452   0.00000  Uiso   1.00
C86    C     0.49672   0.75396   0.01572   0.00000  Uiso   1.00
H87    H     0.55092   0.74826  -0.02881   0.00000  Uiso   1.00
H88    H     0.60781   0.78523  -0.02527   0.00000  Uiso   1.00
H89    H     0.62061   0.83504   0.02199   0.00000  Uiso   1.00
H90    H     0.51918   0.81052   0.06415   0.00000  Uiso   1.00
H91    H     0.50388   0.72665   0.01441   0.00000  Uiso   1.00
H92    H     0.48262   0.76044   0.04029   0.00000  Uiso   1.00
C93    C     0.24714   0.72572   0.91377   0.00000  Uiso   1.00
C94    C     0.22002   0.71042   0.88697   0.00000  Uiso   1.00
C95    C     0.28341   0.73930   0.90438   0.00000  Uiso   1.00
C96    C     0.34814   0.74001   0.92259   0.00000  Uiso   1.00
C97    C     0.37577   0.72549   0.94834   0.00000  Uiso   1.00
C98    C     0.24027   0.72824   0.94993   0.00000  Uiso   1.00
C99    C     0.20716   0.71504   0.95932   0.00000  Uiso   1.00
C100   C     0.18670   0.69695   0.89638   0.00000  Uiso   1.00
H101   H     0.26079   0.74013   0.97090   0.00000  Uiso   1.00
H102   H     0.20223   0.71673   0.98728   0.00000  Uiso   1.00
H103   H     0.15503   0.68915   0.94058   0.00000  Uiso   1.00
H104   H     0.22500   0.70849   0.85898   0.00000  Uiso   1.00
H105   H     0.28613   0.76754   0.91351   0.00000  Uiso   1.00
C106   C     0.43923   0.73628  -0.01899   0.00000  Uiso   1.00
C107   C     0.41250   0.74612   0.95136   0.00000  Uiso   1.00
H108   H     0.35701   0.73672   0.89508   0.00000  Uiso   1.00
H109   H     0.36536   0.72719   0.97518   0.00000  Uiso   1.00
H110   H     0.37919   0.69800   0.93856   0.00000  Uiso   1.00
H111   H     0.34676   0.76797   0.93194   0.00000  Uiso   1.00
H112   H     0.28499   0.73504   0.87489   0.00000  Uiso   1.00
H113   H     0.42649   0.73944   0.00672   0.00000  Uiso   1.00
H114   H     0.44570   0.70897  -0.02573   0.00000  Uiso   1.00
N115   N     0.47258   0.75879  -0.01602   0.00000  Uiso   1.00
N116   N     0.31246   0.72173   0.92238   0.00000  Uiso   1.00
C117   C     0.18054   0.69932   0.93273   0.00000  Uiso   1.00
C118   C     0.51868   0.29235   0.33282   0.00000  Uiso   1.00
C119   C     0.53976   0.31943   0.32223   0.00000  Uiso   1.00
C120   C     0.52496   0.35113   0.31930   0.00000  Uiso   1.00
C121   C     0.48916   0.35610   0.32702   0.00000  Uiso   1.00
C122   C     0.46813   0.32967   0.33877   0.00000  Uiso   1.00
C123   C     0.48311   0.29782   0.34170   0.00000  Uiso   1.00
C124   C     0.53266   0.25699   0.33182   0.00000  Uiso   1.00
H125   H     0.56720   0.31572   0.31518   0.00000  Uiso   1.00
H126   H     0.54111   0.37173   0.31051   0.00000  Uiso   1.00
H127   H     0.47788   0.38051   0.32365   0.00000  Uiso   1.00
H128   H     0.46688   0.27693   0.34996   0.00000  Uiso   1.00
H129   H     0.56266   0.25821   0.33017   0.00000  Uiso   1.00
H130   H     0.52707   0.24626   0.35681   0.00000  Uiso   1.00
C131   C     0.49349   0.03098   0.18759   0.00000  Uiso   1.00
C132   C     0.51725   1.01008   0.16885   0.00000  Uiso   1.00
C133   C     0.49285   0.06878   0.18479   0.00000  Uiso   1.00
C134   C     0.50167   0.12436   0.22162   0.00000  Uiso   1.00
C135   C     0.51809   0.14255   0.25820   0.00000  Uiso   1.00
C136   C     0.47170   1.01680   0.21132   0.00000  Uiso   1.00
C137   C     0.47428   0.98259   0.21717   0.00000  Uiso   1.00
C138   C     0.52015   0.97577   0.17519   0.00000  Uiso   1.00
H139   H     0.45323   1.03250   0.22585   0.00000  Uiso   1.00
H140   H     0.45768   0.97190   0.23574   0.00000  Uiso   1.00
H141   H     0.50096   0.93597   0.20491   0.00000  Uiso   1.00
H142   H     0.53453   0.02086   0.15083   0.00000  Uiso   1.00
H143   H     0.46399   0.07502   0.17898   0.00000  Uiso   1.00
C144   C     0.52486   0.19978   0.29855   0.00000  Uiso   1.00
C145   C     0.50896   0.18023   0.26251   0.00000  Uiso   1.00
H146   H     0.51399   0.13641   0.20003   0.00000  Uiso   1.00
H147   H     0.50671   0.12965   0.27970   0.00000  Uiso   1.00
H148   H     0.54821   0.14094   0.26054   0.00000  Uiso   1.00
H149   H     0.47166   0.12700   0.21905   0.00000  Uiso   1.00
H150   H     0.50842   0.07574   0.16263   0.00000  Uiso   1.00
H151   H     0.51383   0.18751   0.32061   0.00000  Uiso   1.00
H152   H     0.55510   0.19914   0.30077   0.00000  Uiso   1.00
N153   N     0.51418   0.23523   0.30025   0.00000  Uiso   1.00
N154   N     0.50917   0.08793   0.21889   0.00000  Uiso   1.00
C155   C     0.49875   0.96231   0.19959   0.00000  Uiso   1.00
C156   C     0.73413   0.22022   0.59488   0.00000  Uiso   1.00
C157   C     0.74694   0.25492   0.60417   0.00000  Uiso   1.00
C158   C     0.77922   0.26373   0.62645   0.00000  Uiso   1.00
C159   C     0.79973   0.23802   0.63878   0.00000  Uiso   1.00
C160   C     0.78794   0.20306   0.62942   0.00000  Uiso   1.00
C161   C     0.75464   0.19429   0.60786   0.00000  Uiso   1.00
C162   C     0.70037   0.21117   0.56893   0.00000  Uiso   1.00
H163   H     0.73198   0.27527   0.59406   0.00000  Uiso   1.00
H164   H     0.78869   0.29056   0.63368   0.00000  Uiso   1.00
H165   H     0.82517   0.24553   0.65534   0.00000  Uiso   1.00
H166   H     0.74565   0.16744   0.59979   0.00000  Uiso   1.00
H167   H     0.70841   0.21359   0.54164   0.00000  Uiso   1.00
H168   H     0.68975   0.18418   0.56940   0.00000  Uiso   1.00
C169   C     0.49329   0.34166   0.50196   0.00000  Uiso   1.00
C170   C     0.47664   0.35405   0.47154   0.00000  Uiso   1.00
C171   C     0.53409   0.34418   0.51007   0.00000  Uiso   1.00
C172   C     0.57889   0.30744   0.53273   0.00000  Uiso   1.00
C173   C     0.59470   0.27231   0.52555   0.00000  Uiso   1.00
C174   C     0.47150   0.32675   0.52517   0.00000  Uiso   1.00
C175   C     0.43356   0.32429   0.51820   0.00000  Uiso   1.00
C176   C     0.43839   0.35102   0.46400   0.00000  Uiso   1.00
H177   H     0.48393   0.31705   0.54869   0.00000  Uiso   1.00
H178   H     0.41690   0.31280   0.53624   0.00000  Uiso   1.00
H179   H     0.38758   0.33400   0.48296   0.00000  Uiso   1.00
H180   H     0.49345   0.36522   0.45339   0.00000  Uiso   1.00
H181   H     0.54084   0.35832   0.53763   0.00000  Uiso   1.00
C182   C     0.64431   0.23567   0.54819   0.00000  Uiso   1.00
C183   C     0.62445   0.26854   0.55545   0.00000  Uiso   1.00
H184   H     0.60030   0.32800   0.53052   0.00000  Uiso   1.00
H185   H     0.57280   0.25149   0.52459   0.00000  Uiso   1.00
H186   H     0.60632   0.27016   0.49926   0.00000  Uiso   1.00
H187   H     0.57011   0.31091   0.56031   0.00000  Uiso   1.00
H188   H     0.54742   0.35911   0.49117   0.00000  Uiso   1.00
H189   H     0.62472   0.21277   0.54586   0.00000  Uiso   1.00
H190   H     0.65682   0.23617   0.52253   0.00000  Uiso   1.00
N191   N     0.67207   0.23468   0.57830   0.00000  Uiso   1.00
N192   N     0.54730   0.30940   0.50675   0.00000  Uiso   1.00
C193   C     0.41709   0.33625   0.48780   0.00000  Uiso   1.00
C194   C     0.72942   0.00347   0.74697   0.00000  Uiso   1.00
C195   C     0.69683  -0.00561   0.72468   0.00000  Uiso   1.00
C196   C     0.69109   0.00726   0.69195   0.00000  Uiso   1.00
C197   C     0.71766   0.02949   0.68131   0.00000  Uiso   1.00
C198   C     0.75023   0.03919   0.70354   0.00000  Uiso   1.00
C199   C     0.75601   0.02589   0.73626   0.00000  Uiso   1.00
C200   C     0.73581   0.98898   0.78179   0.00000  Uiso   1.00
H201   H     0.67596  -0.02272   0.73266   0.00000  Uiso   1.00
H202   H     0.66595   0.00005   0.67481   0.00000  Uiso   1.00
H203   H     0.71267   0.03927   0.65589   0.00000  Uiso   1.00
H204   H     0.78126   0.03289   0.75337   0.00000  Uiso   1.00
H205   H     0.73120   0.96042   0.77648   0.00000  Uiso   1.00
H206   H     0.76454   0.99531   0.79363   0.00000  Uiso   1.00
C207   C     0.67834   1.00403   0.02803   0.00000  Uiso   1.00
C208   C     0.65921   0.97955   0.04460   0.00000  Uiso   1.00
C209   C     0.66316   1.01414   0.99289   0.00000  Uiso   1.00
C210   C     0.67457   1.01024   0.93041   0.00000  Uiso   1.00
C211   C     0.69792   0.99251   0.90323   0.00000  Uiso   1.00
C212   C     0.71362   1.01665   0.04277   0.00000  Uiso   1.00
C213   C     0.72981   1.00459   0.07327   0.00000  Uiso   1.00
C214   C     0.67604   0.96659   0.07449   0.00000  Uiso   1.00
H215   H     0.72886   1.03527   0.03013   0.00000  Uiso   1.00
H216   H     0.75698   1.01440   0.08451   0.00000  Uiso   1.00
H217   H     0.72439   0.96965   0.11207   0.00000  Uiso   1.00
H218   H     0.63211   0.96938   0.03329   0.00000  Uiso   1.00
H219   H     0.66543   0.04271  -0.00545   0.00000  Uiso   1.00
C220   C     0.71722   0.98991   0.84102   0.00000  Uiso   1.00
C221   C     0.69180   0.00592   0.86712   0.00000  Uiso   1.00
H222   H     0.64517   0.00347   0.92138   0.00000  Uiso   1.00
H223   H     0.72718   0.99741   0.91377   0.00000  Uiso   1.00
H224   H     0.69091   0.96425   0.89959   0.00000  Uiso   1.00
H225   H     0.68021   0.03867   0.93280   0.00000  Uiso   1.00
H226   H     0.63390   0.00508   0.98663   0.00000  Uiso   1.00
H227   H     0.74596   0.99661   0.85259   0.00000  Uiso   1.00
H228   H     0.71180   0.96142   0.83695   0.00000  Uiso   1.00
N229   N     0.71077   0.00334   0.80680   0.00000  Uiso   1.00
N230   N     0.68419   0.99832   0.96496   0.00000  Uiso   1.00
C231   C     0.71129   0.97932   0.08883   0.00000  Uiso   1.00
C232   C     0.77089   0.07140   0.51340   0.00000  Uiso   1.00
C233   C     0.75677   0.04181   0.52613   0.00000  Uiso   1.00
C234   C     0.77037   0.03342   0.55936   0.00000  Uiso   1.00
C235   C     0.79796   0.05453   0.58030   0.00000  Uiso   1.00
C236   C     0.81177   0.08476   0.56861   0.00000  Uiso   1.00
C237   C     0.79819   0.09313   0.53503   0.00000  Uiso   1.00
C238   C     0.75636   0.07968   0.47713   0.00000  Uiso   1.00
H239   H     0.73522   0.02518   0.51040   0.00000  Uiso   1.00
H240   H     0.75959   0.01043   0.56890   0.00000  Uiso   1.00
H241   H     0.80839   0.04726   0.60580   0.00000  Uiso   1.00
H242   H     0.80895   0.11625   0.52568   0.00000  Uiso   1.00
H243   H     0.72650   0.08272   0.47699   0.00000  Uiso   1.00
H244   H     0.76888   0.10472   0.47197   0.00000  Uiso   1.00
C245   C     0.67730   0.92118   0.28349   0.00000  Uiso   1.00
C246   C     0.67572   0.90178   0.24927   0.00000  Uiso   1.00
C247   C     0.69296   0.90537   0.31562   0.00000  Uiso   1.00
C248   C     0.72065   0.95065   0.36171   0.00000  Uiso   1.00
C249   C     0.71043   0.97853   0.39040   0.00000  Uiso   1.00
C250   C     0.66432   0.95454   0.28658   0.00000  Uiso   1.00
C251   C     0.65035   0.96811   0.25616   0.00000  Uiso   1.00
C252   C     0.66147   0.91536   0.21866   0.00000  Uiso   1.00
H253   H     0.66501   0.97041   0.31229   0.00000  Uiso   1.00
H254   H     0.64069   0.99384   0.25876   0.00000  Uiso   1.00
H255   H     0.63828   0.95999   0.19915   0.00000  Uiso   1.00
H256   H     0.68582   0.87619   0.24654   0.00000  Uiso   1.00
H257   H     0.72205   0.90022   0.31292   0.00000  Uiso   1.00
C258   C     0.73226   0.03377   0.43020   0.00000  Uiso   1.00
C259   C     0.74300   1.00419   0.40375   0.00000  Uiso   1.00
H260   H     0.74323   0.93637   0.37309   0.00000  Uiso   1.00
H261   H     0.68742   0.99231   0.37902   0.00000  Uiso   1.00
H262   H     0.70147  -0.03372   0.41338   0.00000  Uiso   1.00
H263   H     0.72990   0.96309   0.33892   0.00000  Uiso   1.00
H264   H     0.67790   0.88005   0.31554   0.00000  Uiso   1.00
H265   H     0.71578   0.05123   0.41527   0.00000  Uiso   1.00
H266   H     0.71570   0.02310   0.44984   0.00000  Uiso   1.00
N267   N     0.76520   0.05284   0.44895   0.00000  Uiso   1.00
N268   N     0.68878   0.92655   0.34979   0.00000  Uiso   1.00
C269   C     0.64899   0.94874   0.22239   0.00000  Uiso   1.00
C270   C     0.30733   0.42331   0.49867   0.00000  Uiso   1.00
C271   C     0.27207   0.41108   0.48365   0.00000  Uiso   1.00
C272   C     0.26495   0.40108   0.44673   0.00000  Uiso   1.00
C273   C     0.29297   0.40298   0.42445   0.00000  Uiso   1.00
C274   C     0.32842   0.41520   0.43891   0.00000  Uiso   1.00
C275   C     0.33547   0.42540   0.47615   0.00000  Uiso   1.00
C276   C     0.31469   0.43310   0.53862   0.00000  Uiso   1.00
H277   H     0.25015   0.40909   0.50065   0.00000  Uiso   1.00
H278   H     0.23765   0.39174   0.43537   0.00000  Uiso   1.00
H279   H     0.28689   0.39495   0.39589   0.00000  Uiso   1.00
H280   H     0.36281   0.43461   0.48761   0.00000  Uiso   1.00
H281   H     0.30646   0.41044   0.55177   0.00000  Uiso   1.00
H282   H     0.34426   0.43983   0.54649   0.00000  Uiso   1.00
C283   C     0.24537   0.58861   0.74114   0.00000  Uiso   1.00
C284   C     0.21410   0.59645   0.75850   0.00000  Uiso   1.00
C285   C     0.24347   0.58174   0.70087   0.00000  Uiso   1.00
C286   C     0.25636   0.54102   0.65100   0.00000  Uiso   1.00
C287   C     0.27299   0.50678   0.64071   0.00000  Uiso   1.00
C288   C     0.27886   0.58754   0.76176   0.00000  Uiso   1.00
C289   C     0.28100   0.59345   0.79913   0.00000  Uiso   1.00
C290   C     0.21610   0.60265   0.79624   0.00000  Uiso   1.00
H291   H     0.30328   0.58192   0.74883   0.00000  Uiso   1.00
H292   H     0.30690   0.59236   0.81483   0.00000  Uiso   1.00
H293   H     0.25236   0.60524   0.84535   0.00000  Uiso   1.00
H294   H     0.18829   0.59759   0.74259   0.00000  Uiso   1.00
H295   H     0.26138   0.60183   0.69158   0.00000  Uiso   1.00
C296   C     0.29508   0.46848   0.58918   0.00000  Uiso   1.00
C297   C     0.27528   0.50064   0.60023   0.00000  Uiso   1.00
H298   H     0.22799   0.53995   0.63781   0.00000  Uiso   1.00
H299   H     0.30082   0.50741   0.65506   0.00000  Uiso   1.00
H300   H     0.25575   0.48547   0.64870   0.00000  Uiso   1.00
H301   H     0.27307   0.56198   0.64163   0.00000  Uiso   1.00
H302   H     0.21512   0.58335   0.68858   0.00000  Uiso   1.00
H303   H     0.32386   0.47234   0.60141   0.00000  Uiso   1.00
H304   H     0.28132   0.44601   0.59889   0.00000  Uiso   1.00
N305   N     0.29391   0.46267   0.55006   0.00000  Uiso   1.00
N306   N     0.25587   0.54741   0.68999   0.00000  Uiso   1.00
C307   C     0.24990   0.60087   0.81632   0.00000  Uiso   1.00
C308   C     0.18933   0.55306   0.03264   0.00000  Uiso   1.00
C309   C     0.21322   0.57929   0.05230   0.00000  Uiso   1.00
C310   C     0.22326   0.60854   1.03710   0.00000  Uiso   1.00
C311   C     0.20913   0.61216   1.00228   0.00000  Uiso   1.00
C312   C     0.18466   0.58651   0.98240   0.00000  Uiso   1.00
C313   C     0.17499   0.55686   0.99759   0.00000  Uiso   1.00
C314   C     0.17896   0.52144   0.04918   0.00000  Uiso   1.00
H315   H     0.22440   0.57708   0.07938   0.00000  Uiso   1.00
H316   H     0.24185   0.62856   1.05237   0.00000  Uiso   1.00
H317   H     0.21696   0.63529   0.99119   0.00000  Uiso   1.00
H318   H     0.15616   0.53697   0.98242   0.00000  Uiso   1.00
H319   H     0.16298   0.52902   0.07224   0.00000  Uiso   1.00
H320   H     0.16089   0.50292   0.02965   0.00000  Uiso   1.00
C321   C     0.33623   0.43821   0.21776   0.00000  Uiso   1.00
C322   C     0.35078   0.43238   0.25209   0.00000  Uiso   1.00
C323   C     0.34766   0.47034   0.20255   0.00000  Uiso   1.00
C324   C     0.30720   0.49030   0.15587   0.00000  Uiso   1.00
C325   C     0.26752   0.49845   0.14809   0.00000  Uiso   1.00
C326   C     0.31057   0.41377   0.19766   0.00000  Uiso   1.00
C327   C     0.29874   0.38458   0.21198   0.00000  Uiso   1.00
C328   C     0.33932   0.40271   0.26656   0.00000  Uiso   1.00
H329   H     0.29937   0.41742   0.17101   0.00000  Uiso   1.00
H330   H     0.27855   0.36612   0.19650   0.00000  Uiso   1.00
H331   H     0.30334   0.35601   0.25647   0.00000  Uiso   1.00
H332   H     0.37100   0.45093   0.26744   0.00000  Uiso   1.00
H333   H     0.36255   0.46312   0.17863   0.00000  Uiso   1.00
C334   C     0.21859   0.50495   0.09841   0.00000  Uiso   1.00
C335   C     0.25793   0.49682   0.10769   0.00000  Uiso   1.00
H336   H     0.32552   0.51048   0.14731   0.00000  Uiso   1.00
H337   H     0.24946   0.47926   0.15854   0.00000  Uiso   1.00
H338   H     0.26343   0.52463   0.16169   0.00000  Uiso   1.00
H339   H     0.31131   0.46501   0.14021   0.00000  Uiso   1.00
H340   H     0.36706   0.48732   0.22230   0.00000  Uiso   1.00
H341   H     0.19978   0.48530   0.10718   0.00000  Uiso   1.00
H342   H     0.21429   0.53080   0.11269   0.00000  Uiso   1.00
N343   N     0.21203   0.50433   0.05951   0.00000  Uiso   1.00
N344   N     0.31542   0.48949   0.19446   0.00000  Uiso   1.00
C345   C     0.31284   0.37907   0.24619   0.00000  Uiso   1.00
C346   C     0.23666   0.23655   0.39232   0.00000  Uiso   1.00
C347   C     0.22304   0.21640   0.35992   0.00000  Uiso   1.00
C348   C     0.23598   0.22299   0.32767   0.00000  Uiso   1.00
C349   C     0.26293   0.24943   0.32754   0.00000  Uiso   1.00
C350   C     0.27652   0.27002   0.35970   0.00000  Uiso   1.00
C351   C     0.26302   0.26364   0.39195   0.00000  Uiso   1.00
C352   C     0.22427   0.22820   0.42719   0.00000  Uiso   1.00
H353   H     0.20265   0.19544   0.35972   0.00000  Uiso   1.00
H354   H     0.22543   0.20727   0.30280   0.00000  Uiso   1.00
H355   H     0.27297   0.25391   0.30238   0.00000  Uiso   1.00
H356   H     0.27382   0.27914   0.41692   0.00000  Uiso   1.00
H357   H     0.23058   0.20124   0.43019   0.00000  Uiso   1.00
H358   H     0.23928   0.24552   0.45016   0.00000  Uiso   1.00
C359   C     1.01284   0.22451   0.56324   0.00000  Uiso   1.00
C360   C     0.98767   0.20153   0.57524   0.00000  Uiso   1.00
C361   C     0.02392   0.21810   0.52579   0.00000  Uiso   1.00
C362   C     0.07608   0.21980   0.49204   0.00000  Uiso   1.00
C363   C     0.11751   0.21940   0.49494   0.00000  Uiso   1.00
C364   C     0.02664   0.25436   0.58613   0.00000  Uiso   1.00
C365   C     1.01548   0.26113   0.62053   0.00000  Uiso   1.00
C366   C     0.97575   0.20865   0.60952   0.00000  Uiso   1.00
H367   H     0.04593   0.27245   0.57725   0.00000  Uiso   1.00
H368   H     1.02630   0.28415   0.63808   0.00000  Uiso   1.00
H369   H     0.98098   0.24466   0.65857   0.00000  Uiso   1.00
H370   H     0.97652   0.17873   0.55747   0.00000  Uiso   1.00
H371   H     0.01422   0.23929   0.51111   0.00000  Uiso   1.00
C372   C     0.17289   0.22425   0.46125   0.00000  Uiso   1.00
C373   C     0.13163   0.22554   0.45944   0.00000  Uiso   1.00
H374   H     0.06388   0.19770   0.47231   0.00000  Uiso   1.00
H375   H     0.12957   0.24004   0.51642   0.00000  Uiso   1.00
H376   H     0.12565   0.19403   0.50204   0.00000  Uiso   1.00
H377   H     0.06794   0.24438   0.48273   0.00000  Uiso   1.00
H378   H     0.01102   0.19327   0.51138   0.00000  Uiso   1.00
H379   H     0.18583   0.24370   0.48352   0.00000  Uiso   1.00
H380   H     0.18027   0.19802   0.46628   0.00000  Uiso   1.00
N381   N     0.18500   0.23187   0.42719   0.00000  Uiso   1.00
N382   N     0.06363   0.21713   0.52730   0.00000  Uiso   1.00
C383   C     0.98988   0.23860   0.63209   0.00000  Uiso   1.00
C384   C     0.94840  -0.00142   0.70576   0.00000  Uiso   1.00
C385   C     0.98593   0.00740   0.70724   0.00000  Uiso   1.00
C386   C     0.99832   0.03842   0.69676   0.00000  Uiso   1.00
C387   C     0.97342   0.06126   0.68525   0.00000  Uiso   1.00
C388   C     0.93564   0.05336   0.68417   0.00000  Uiso   1.00
C389   C     0.92330   0.02162   0.69416   0.00000  Uiso   1.00
C390   C     0.93580   0.96505   0.71754   0.00000  Uiso   1.00
H391   H     0.00562  -0.00988   0.71646   0.00000  Uiso   1.00
H392   H     0.02734   0.04489   0.69780   0.00000  Uiso   1.00
H393   H     0.98386   0.08545   0.67791   0.00000  Uiso   1.00
H394   H     0.89432   0.01493   0.69324   0.00000  Uiso   1.00
H395   H     0.94571  -0.03390   0.74643   0.00000  Uiso   1.00
H396   H     0.90551   0.96133   0.71462   0.00000  Uiso   1.00
C397   C     0.03705   0.73864   0.70725   0.00000  Uiso   1.00
C398   C     0.05423   0.72408   0.73599   0.00000  Uiso   1.00
C399   C     0.04078   0.77687   0.70630   0.00000  Uiso   1.00
C400   C     0.00622   0.82574   0.69706   0.00000  Uiso   1.00
C401   C    -0.02593   0.84551   0.70932   0.00000  Uiso   1.00
C402   C     1.01831   0.71695   0.67808   0.00000  Uiso   1.00
C403   C     1.01718   0.68120   0.67738   0.00000  Uiso   1.00
C404   C     0.05339   0.68812   0.73525   0.00000  Uiso   1.00
H405   H     1.00521   0.72773   0.65557   0.00000  Uiso   1.00
H406   H     1.00293   0.66459   0.65466   0.00000  Uiso   1.00
H407   H     0.03392   0.63902   0.70452   0.00000  Uiso   1.00
H408   H     0.06895   0.74066   0.75848   0.00000  Uiso   1.00
H409   H     0.05164   0.78127   0.68058   0.00000  Uiso   1.00
C410   C     0.94843   0.90461   0.71187   0.00000  Uiso   1.00
C411   C     0.97496   0.88034   0.69522   0.00000  Uiso   1.00
H412   H     0.03197   0.84114   0.70817   0.00000  Uiso   1.00
H413   H     0.94796   0.83068   0.69875   0.00000  Uiso   1.00
H414   H    -0.02386   0.84938   0.73915   0.00000  Uiso   1.00
H415   H     1.00464   0.82233   0.66725   0.00000  Uiso   1.00
H416   H     0.06066   0.78965   0.72864   0.00000  Uiso   1.00
H417   H     0.92013   0.89266   0.70630   0.00000  Uiso   1.00
H418   H    -0.04382   0.90943   0.74135   0.00000  Uiso   1.00
N419   N     0.95104   0.93661   0.69588   0.00000  Uiso   1.00
N420   N     0.00540   0.79175   0.70933   0.00000  Uiso   1.00
C421   C     0.03482   0.66680   0.70569   0.00000  Uiso   1.00
C422   C     0.08667   0.48148   0.75433   0.00000  Uiso   1.00
C423   C     0.06697   0.49565   0.72676   0.00000  Uiso   1.00
C424   C     0.06203   0.53088   0.73018   0.00000  Uiso   1.00
C425   C     0.07690   0.55233   0.76105   0.00000  Uiso   1.00
C426   C     0.09772   0.53888   0.78832   0.00000  Uiso   1.00
C427   C     0.10293   0.50341   0.78472   0.00000  Uiso   1.00
C428   C     0.08708   0.44301   0.75238   0.00000  Uiso   1.00
H429   H     0.05425   0.47914   0.70319   0.00000  Uiso   1.00
H430   H     0.04603   0.54151   0.70923   0.00000  Uiso   1.00
H431   H     0.07186   0.57931   0.76374   0.00000  Uiso   1.00
H432   H     0.11801   0.49266   0.80621   0.00000  Uiso   1.00
H433   H     0.09871   0.43275   0.72732   0.00000  Uiso   1.00
H434   H     0.10417   0.43572   0.77574   0.00000  Uiso   1.00
C435   C     0.90312   0.25450   0.74884   0.00000  Uiso   1.00
C436   C     0.88528   0.22615   0.72625   0.00000  Uiso   1.00
C437   C     0.90986   0.28834   0.73516   0.00000  Uiso   1.00
C438   C     0.95693   0.33341   0.73598   0.00000  Uiso   1.00
C439   C     0.99804   0.34147   0.73759   0.00000  Uiso   1.00
C440   C     0.91448   0.25113   0.78469   0.00000  Uiso   1.00
C441   C     0.90860   0.21969   0.79764   0.00000  Uiso   1.00
C442   C     0.87894   0.19478   0.73940   0.00000  Uiso   1.00
H443   H     0.92815   0.27279   0.80249   0.00000  Uiso   1.00
H444   H     0.91771   0.21716   0.82522   0.00000  Uiso   1.00
H445   H     0.88666   0.16724   0.78528   0.00000  Uiso   1.00
H446   H     0.87634   0.22851   0.69863   0.00000  Uiso   1.00
H447   H     0.89647   0.30826   0.75218   0.00000  Uiso   1.00
C448   C     0.04614   0.39158   0.74511   0.00000  Uiso   1.00
C449   C     1.00572   0.38042   0.74227   0.00000  Uiso   1.00
H450   H     0.94334   0.34117   0.71091   0.00000  Uiso   1.00
H451   H     0.01207   0.33088   0.76076   0.00000  Uiso   1.00
H452   H     1.00830   0.32967   0.71237   0.00000  Uiso   1.00
H453   H     0.94650   0.34830   0.75966   0.00000  Uiso   1.00
H454   H     0.89752   0.28737   0.70701   0.00000  Uiso   1.00
H455   H     0.06107   0.38052   0.76745   0.00000  Uiso   1.00
H456   H     0.05709   0.38261   0.71930   0.00000  Uiso   1.00
N457   N     0.04946   0.42911   0.75236   0.00000  Uiso   1.00
N458   N     0.94924   0.29655   0.73672   0.00000  Uiso   1.00
C459   C     0.89085   0.19156   0.77506   0.00000  Uiso   1.00
C460   C     0.79598   0.78573   0.05776   0.00000  Uiso   1.00
C461   C     0.78776   0.77753   0.02037   0.00000  Uiso   1.00
C462   C     0.75339   0.78284   0.00405   0.00000  Uiso   1.00
C463   C     0.72702   0.79694   0.02463   0.00000  Uiso   1.00
C464   C     0.73512   0.80668   0.06173   0.00000  Uiso   1.00
C465   C     0.76962   0.80098   0.07820   0.00000  Uiso   1.00
C466   C     0.83258   0.77912   0.07621   0.00000  Uiso   1.00
H467   H     0.80774   0.76688   0.00360   0.00000  Uiso   1.00
H468   H     0.74730   0.77645  -0.02471   0.00000  Uiso   1.00
H469   H     0.70062   0.80123   0.01140   0.00000  Uiso   1.00
H470   H     0.77594   0.80829   0.10688   0.00000  Uiso   1.00
H471   H     0.85123   0.80279   0.07905   0.00000  Uiso   1.00
H472   H     0.82905   0.77364   0.10385   0.00000  Uiso   1.00
C473   C     0.96457   0.66042   0.90683   0.00000  Uiso   1.00
C474   C    -0.00265   0.65797   0.89063   0.00000  Uiso   1.00
C475   C     0.93906   0.68790   0.89925   0.00000  Uiso   1.00
C476   C     0.90580   0.71339   0.94753   0.00000  Uiso   1.00
C477   C     0.91057   0.73684   0.98335   0.00000  Uiso   1.00
C478   C     0.95612   0.63739   0.93089   0.00000  Uiso   1.00
C479   C    -0.01955   0.61296   0.93946   0.00000  Uiso   1.00
C480   C     0.02197   0.63331   0.89912   0.00000  Uiso   1.00
H481   H     0.93077   0.63833   0.94316   0.00000  Uiso   1.00
H482   H    -0.02608   0.59551   0.95831   0.00000  Uiso   1.00
H483   H     0.03160   0.59169   0.93089   0.00000  Uiso   1.00
H484   H     0.00401   0.67571   0.87206   0.00000  Uiso   1.00
H485   H     0.91113   0.67583   0.89033   0.00000  Uiso   1.00
C486   C     0.87763   0.75829   0.03676   0.00000  Uiso   1.00
C487   C     0.87770   0.73118   1.00414   0.00000  Uiso   1.00
H488   H     0.88410   0.72280   0.92945   0.00000  Uiso   1.00
H489   H     0.93558   0.73084   0.99957   0.00000  Uiso   1.00
H490   H     0.91344   0.76413   0.97827   0.00000  Uiso   1.00
H491   H     0.89745   0.68677   0.95213   0.00000  Uiso   1.00
H492   H     0.94767   0.70111   0.87681   0.00000  Uiso   1.00
H493   H     0.90389   0.75932   0.05397   0.00000  Uiso   1.00
H494   H     0.87426   0.78365   0.02697   0.00000  Uiso   1.00
N495   N     0.84781   0.74885   0.05742   0.00000  Uiso   1.00
N496   N     0.94021   0.71384   0.93107   0.00000  Uiso   1.00
C497   C     0.01323   0.61097   0.92385   0.00000  Uiso   1.00
C498   C     0.56022   0.74811   0.18149   0.00000  Uiso   1.00
C499   C     0.52427   0.75491   0.18806   0.00000  Uiso   1.00
C500   C     0.51136   0.78718   0.18464   0.00000  Uiso   1.00
C501   C     0.53390   0.81285   0.17398   0.00000  Uiso   1.00
C502   C     0.56974   0.80641   0.16628   0.00000  Uiso   1.00
C503   C     0.58280   0.77387   0.17011   0.00000  Uiso   1.00
C504   C     0.57359   0.71326   0.18635   0.00000  Uiso   1.00
H505   H     0.50634   0.73523   0.19627   0.00000  Uiso   1.00
H506   H     0.48368   0.79225   0.18999   0.00000  Uiso   1.00
H507   H     0.52298   0.83753   0.17091   0.00000  Uiso   1.00
H508   H     0.61034   0.76863   0.16428   0.00000  Uiso   1.00
H509   H     0.55830   0.69413   0.16515   0.00000  Uiso   1.00
H510   H     0.60314   0.71244   0.18294   0.00000  Uiso   1.00
C511   C     0.51292   0.54817   0.34950   0.00000  Uiso   1.00
C512   C     0.48510   0.52339   0.35375   0.00000  Uiso   1.00
C513   C     0.50425   0.58228   0.33758   0.00000  Uiso   1.00
C514   C     0.52515   0.62242   0.29914   0.00000  Uiso   1.00
C515   C     0.54167   0.62551   0.26396   0.00000  Uiso   1.00
C516   C     0.54956   0.54108   0.35686   0.00000  Uiso   1.00
C517   C     0.55842   0.50954   0.36746   0.00000  Uiso   1.00
C518   C     0.49398   0.49146   0.36440   0.00000  Uiso   1.00
H519   H     0.57129   0.55997   0.35408   0.00000  Uiso   1.00
H520   H     0.58675   0.50420   0.37283   0.00000  Uiso   1.00
H521   H     0.53846   0.46040   0.37910   0.00000  Uiso   1.00
H522   H     0.45675   0.52882   0.34848   0.00000  Uiso   1.00
H523   H     0.51514   0.60293   0.35962   0.00000  Uiso   1.00
C524   C     0.56227   0.66867   0.22389   0.00000  Uiso   1.00
C525   C     0.54894   0.66350   0.25996   0.00000  Uiso   1.00
H526   H     0.49806   0.63370   0.29818   0.00000  Uiso   1.00
H527   H     0.56779   0.61263   0.26388   0.00000  Uiso   1.00
H528   H     0.52236   0.61272   0.24117   0.00000  Uiso   1.00
H529   H     0.54361   0.63696   0.32168   0.00000  Uiso   1.00
H530   H     0.47428   0.58420   0.33269   0.00000  Uiso   1.00
H531   H     0.58854   0.65647   0.22100   0.00000  Uiso   1.00
H532   H     0.54124   0.65650   0.20228   0.00000  Uiso   1.00
N533   N     0.56748   0.70571   0.22248   0.00000  Uiso   1.00
N534   N     0.52100   0.58611   0.30443   0.00000  Uiso   1.00
C535   C     0.53089   0.48478   0.37102   0.00000  Uiso   1.00
loop_
_geom_bond_atom_site_label_1
_geom_bond_atom_site_label_2
_geom_bond_distance
_geom_bond_site_symmetry_2
_ccdc_geom_bond_type
Y0     O2      2.255   .     S
Y0     O3      2.275   .     S
Y0     O6      2.259   .     S
Y0     O7      2.256   .     S
Y0     O9      2.245   .     S
Y0     O10     2.285   .     S
Y0     O11     2.272   .     S
Y1     O3      2.251   .     S
Y1     O5      2.270   .     S
Y1     O8      2.261   .     S
Y1     O9      2.261   .     S
Y1     O13     2.251   .     S
Y1     O15     2.261   .     S
Y1     O16     2.244   .     S
O2     C12     1.284   .     A
O3     C14     1.378   .     S
C4     O15     1.265   .     A
C4     O16     1.260   .     A
C4     C312    1.477   .     S
O5     C14     1.214   .     D
O6     C17     1.261   .     A
O7     C17     1.260   .     A
O8     C12     1.284   .     A
O9     C19     1.367   .     S
O10    C19     1.210   .     D
O11    C18     1.288   .     A
C12    C290    1.482   .     S
O13    C18     1.284   .     A
C14    C426    1.473   .     S
C17    C404    1.473   .     S
C18    C480    1.480   .     S
C19    C100    1.472   .     S
Y20    O22     2.261   .     S
Y20    O23     2.271   .     S
Y20    O26     2.263   .     S
Y20    O27     2.247   .     S
Y20    O29     2.242   .     S
Y20    O30     2.283   .     S
Y20    O31     2.268   .     S
Y21    O23     2.254   .     S
Y21    O25     2.271   .     S
Y21    O28     2.255   .     S
Y21    O29     2.260   .     S
Y21    O33     2.252   .     S
Y21    O35     2.269   .     S
Y21    O36     2.238   .     S
O22    C32     1.285   .     A
O23    C34     1.373   .     S
C24    O35     1.265   .     A
C24    O36     1.259   .     A
C24    C138    1.467   .     S
O25    C34     1.212   .     D
O26    C37     1.265   .     A
O27    C37     1.261   .     A
O28    C32     1.280   .     A
O29    C39     1.368   .     S
O30    C39     1.215   .     D
O31    C38     1.287   .     A
C32    C502    1.479   .     S
O33    C38     1.283   .     A
C34    C84     1.474   .     S
C37    C464    1.469   .     S
C38    C214    1.464   .     S
C39    C252    1.473   .     S
Y40    O42     2.273   .     S
Y40    O43     2.255   .     S
Y40    O46     2.256   .     S
Y40    O47     2.253   .     S
Y40    O49     2.254   .     S
Y40    O50     2.273   .     S
Y40    O51     2.271   .     S
Y41    O43     2.244   .     S
Y41    O45     2.289   .     S
Y41    O48     2.245   .     S
Y41    O49     2.270   .     S
Y41    O53     2.258   .     S
Y41    O55     2.250   .     S
Y41    O56     2.254   .     S
O42    C52     1.283   .     A
O43    C54     1.364   .     S
C44    O55     1.262   .     A
C44    O56     1.263   .     A
C44    C366    1.473   .     S
O45    C54     1.211   .     D
O46    C57     1.262   .     A
O47    C57     1.263   .     A
O48    C52     1.283   .     A
O49    C59     1.370   .     S
O50    C59     1.210   .     D
O51    C58     1.286   .     A
C52    C160    1.479   .     S
O53    C58     1.288   .     A
C54    C236    1.472   .     S
C57    C198    1.474   .     S
C58    C388    1.484   .     S
C59    C442    1.462   .     S
Y60    O62     2.263   .     S
Y60    O63     2.272   .     S
Y60    O66     2.269   .     S
Y60    O67     2.249   .     S
Y60    O69     2.258   .     S
Y60    O70     2.280   .     S
Y60    O71     2.270   .     S
Y61    O63     2.258   .     S
Y61    O65     2.273   .     S
Y61    O68     2.248   .     S
Y61    O69     2.270   .     S
Y61    O73     2.250   .     S
Y61    O75     2.249   .     S
Y61    O76     2.260   .     S
O62    C72     1.282   .     A
O63    C74     1.374   .     S
C64    O75     1.261   .     A
C64    O76     1.263   .     A
C64    C350    1.473   .     S
O65    C74     1.211   .     D
O66    C77     1.265   .     A
O67    C77     1.260   .     A
O68    C72     1.284   .     A
O69    C79     1.373   .     S
O70    C79     1.211   .     D
O71    C78     1.288   .     A
C72    C176    1.478   .     S
O73    C78     1.283   .     A
C74    C122    1.474   .     S
C77    C518    1.478   .     S
C78    C328    1.483   .     S
C79    C274    1.477   .     S
C80    C81     1.403   .     A
C80    C85     1.404   .     A
C80    C86     1.503   .     S
C81    C82     1.398   .     A
C81    H87     1.083   .     S
C82    C83     1.398   .     A
C82    H88     1.083   .     S
C83    C84     1.404   .     A
C83    H89     1.083   .     S
C84    C85     1.405   .     A
C85    H90     1.083   .     S
C86    H91     1.113   .     S
C86    H92     1.113   .     S
C86    N115    1.464   .     S
C93    C94     1.406   .     A
C93    C95     1.503   .     S
C93    C98     1.405   .     A
C94    C100    1.406   .     A
C94    H104    1.083   .     S
C95    H105    1.113   .     S
C95    H112    1.112   .     S
C95    N116    1.466   .     S
C96    C97     1.526   .     S
C96    H108    1.112   .     S
C96    H111    1.113   .     S
C96    N116    1.463   .     S
C97    C107    1.527   .     S
C97    H109    1.112   .     S
C97    H110    1.111   .     S
C98    C99     1.395   .     A
C98    H101    1.083   .     S
C99    H102    1.083   .     S
C99    C117    1.395   .     A
C100   C117    1.404   .     A
H103   C117    1.084   .     S
C106   H113    1.113   .     S
C106   H114    1.112   .     S
C106   N115    1.462   .     S
C106   C107    1.523   1_554 S
C107   C106    1.523   1_556 S
C118   C119    1.404   .     A
C118   C123    1.405   .     A
C118   C124    1.502   .     S
C119   C120    1.397   .     A
C119   H125    1.083   .     S
C120   C121    1.397   .     A
C120   H126    1.082   .     S
C121   C122    1.403   .     A
C121   H127    1.081   .     S
C122   C123    1.405   .     A
C123   H128    1.084   .     S
C124   H129    1.113   .     S
C124   H130    1.113   .     S
C124   N153    1.463   .     S
C131   C133    1.501   .     S
C131   C132    1.408   1_545 A
C131   C136    1.404   1_545 A
C132   C138    1.404   .     A
C132   C131    1.408   1_565 A
C132   H142    1.083   1_565 S
C133   H143    1.113   .     S
C133   H150    1.112   .     S
C133   N154    1.464   .     S
C134   C135    1.527   .     S
C134   H146    1.113   .     S
C134   H149    1.113   .     S
C134   N154    1.462   .     S
C135   C145    1.525   .     S
C135   H147    1.112   .     S
C135   H148    1.112   .     S
C136   C137    1.394   .     A
C136   H139    1.083   .     S
C136   C131    1.404   1_565 A
C137   H140    1.082   .     S
C137   C155    1.393   .     A
C138   C155    1.402   .     A
H141   C155    1.083   .     S
H142   C132    1.083   1_545 S
C144   C145    1.523   .     S
C144   H151    1.112   .     S
C144   H152    1.113   .     S
C144   N153    1.460   .     S
C156   C157    1.405   .     A
C156   C161    1.410   .     A
C156   C162    1.508   .     S
C157   C158    1.393   .     A
C157   H163    1.083   .     S
C158   C159    1.393   .     A
C158   H164    1.083   .     S
C159   C160    1.406   .     A
C159   H165    1.083   .     S
C160   C161    1.409   .     A
C161   H166    1.083   .     S
C162   H167    1.113   .     S
C162   H168    1.111   .     S
C162   N191    1.467   .     S
C169   C170    1.406   .     A
C169   C171    1.503   .     S
C169   C174    1.403   .     A
C170   C176    1.409   .     A
C170   H180    1.083   .     S
C171   H181    1.114   .     S
C171   H188    1.112   .     S
C171   N192    1.467   .     S
C172   C173    1.527   .     S
C172   H184    1.114   .     S
C172   H187    1.113   .     S
C172   N192    1.463   .     S
C173   C183    1.527   .     S
C173   H185    1.112   .     S
C173   H186    1.113   .     S
C174   C175    1.395   .     A
C174   H177    1.083   .     S
C175   H178    1.082   .     S
C175   C193    1.395   .     A
C176   C193    1.406   .     A
H179   C193    1.083   .     S
C182   C183    1.523   .     S
C182   H189    1.111   .     S
C182   H190    1.113   .     S
C182   N191    1.463   .     S
C194   C195    1.403   .     A
C194   C199    1.404   .     A
C194   C200    1.502   1_545 S
C195   C196    1.397   .     A
C195   H201    1.083   .     S
C196   C197    1.397   .     A
C196   H202    1.083   .     S
C197   C198    1.405   .     A
C197   H203    1.083   .     S
C198   C199    1.404   .     A
C199   H204    1.084   .     S
C200   H205    1.113   .     S
C200   H206    1.114   .     S
C200   C194    1.502   1_565 S
C200   N229    1.464   1_565 S
C207   C208    1.405   .     A
C207   C212    1.405   .     A
C207   C209    1.501   1_554 S
C208   C214    1.403   .     A
C208   H218    1.084   .     S
C209   N230    1.461   .     S
C209   C207    1.501   1_556 S
C209   H219    1.112   1_566 S
C209   H226    1.112   1_565 S
C210   C211    1.524   .     S
C210   N230    1.461   .     S
C210   H222    1.114   1_565 S
C210   H225    1.114   1_565 S
C211   H223    1.113   .     S
C211   H224    1.112   .     S
C211   C221    1.525   1_565 S
C212   C213    1.396   .     A
C212   H215    1.083   .     S
C213   H216    1.082   .     S
C213   C231    1.395   .     A
C214   C231    1.401   .     A
H217   C231    1.083   .     S
H219   C209    1.112   1_544 S
C220   H227    1.113   .     S
C220   H228    1.112   .     S
C220   C221    1.524   1_565 S
C220   N229    1.461   1_565 S
C221   C211    1.525   1_545 S
C221   C220    1.524   1_545 S
H222   C210    1.114   1_545 S
H225   C210    1.114   1_545 S
H226   C209    1.112   1_545 S
N229   C200    1.464   1_545 S
N229   C220    1.461   1_545 S
C232   C233    1.405   .     A
C232   C237    1.408   .     A
C232   C238    1.505   .     S
C233   C234    1.393   .     A
C233   H239    1.081   .     S
C234   C235    1.392   .     A
C234   H240    1.083   .     S
C235   C236    1.404   .     A
C235   H241    1.082   .     S
C236   C237    1.405   .     A
C237   H242    1.083   .     S
C238   H243    1.114   .     S
C238   H244    1.110   .     S
C238   N267    1.470   .     S
C245   C246    1.407   .     A
C245   C247    1.514   .     S
C245   C250    1.411   .     A
C246   C252    1.404   .     A
C246   H256    1.084   .     S
C247   H257    1.114   .     S
C247   H264    1.111   .     S
C247   N268    1.468   .     S
C248   C249    1.525   .     S
C248   H260    1.112   .     S
C248   H263    1.114   .     S
C248   N268    1.467   .     S
C249   C259    1.529   .     S
C249   H261    1.113   .     S
C249   H262    1.112   1_565 S
C250   C251    1.394   .     A
C250   H253    1.081   .     S
C251   H254    1.083   .     S
C251   C269    1.393   .     A
C252   C269    1.405   .     A
H255   C269    1.084   .     S
C258   H265    1.112   .     S
C258   H266    1.111   .     S
C258   N267    1.464   .     S
C258   C259    1.525   1_545 S
C259   C258    1.525   1_565 S
H262   C249    1.112   1_545 S
C270   C271    1.403   .     A
C270   C275    1.407   .     A
C270   C276    1.504   .     S
C271   C272    1.396   .     A
C271   H277    1.083   .     S
C272   C273    1.397   .     A
C272   H278    1.083   .     S
C273   C274    1.404   .     A
C273   H279    1.083   .     S
C274   C275    1.408   .     A
C275   H280    1.084   .     S
C276   H281    1.114   .     S
C276   H282    1.112   .     S
C276   N305    1.465   .     S
C283   C284    1.407   .     A
C283   C285    1.505   .     S
C283   C288    1.403   .     A
C284   C290    1.409   .     A
C284   H294    1.084   .     S
C285   H295    1.113   .     S
C285   H302    1.112   .     S
C285   N306    1.466   .     S
C286   C287    1.526   .     S
C286   H298    1.112   .     S
C286   H301    1.114   .     S
C286   N306    1.464   .     S
C287   C297    1.528   .     S
C287   H299    1.112   .     S
C287   H300    1.112   .     S
C288   C289    1.395   .     A
C288   H291    1.083   .     S
C289   H292    1.082   .     S
C289   C307    1.396   .     A
C290   C307    1.407   .     A
H293   C307    1.083   .     S
C296   C297    1.522   .     S
C296   H303    1.112   .     S
C296   H304    1.112   .     S
C296   N305    1.462   .     S
C308   C309    1.404   .     A
C308   C314    1.505   .     S
C308   C313    1.408   1_554 A
C309   H315    1.082   .     S
C309   C310    1.395   1_554 A
C310   C311    1.396   .     A
C310   H316    1.082   .     S
C310   C309    1.395   1_556 A
C311   C312    1.405   .     A
C311   H317    1.083   .     S
C312   C313    1.404   .     A
C313   H318    1.083   .     S
C313   C308    1.408   1_556 A
C314   H319    1.115   .     S
C314   H320    1.111   .     S
C314   N343    1.468   .     S
C321   C322    1.408   .     A
C321   C323    1.506   .     S
C321   C326    1.404   .     A
C322   C328    1.408   .     A
C322   H332    1.084   .     S
C323   H333    1.114   .     S
C323   H340    1.111   .     S
C323   N344    1.469   .     S
C324   C325    1.524   .     S
C324   H336    1.112   .     S
C324   H339    1.113   .     S
C324   N344    1.466   .     S
C325   C335    1.526   .     S
C325   H337    1.112   .     S
C325   H338    1.112   .     S
C326   C327    1.394   .     A
C326   H329    1.082   .     S
C327   H330    1.083   .     S
C327   C345    1.395   .     A
C328   C345    1.409   .     A
H331   C345    1.083   .     S
C334   C335    1.521   .     S
C334   H341    1.112   .     S
C334   H342    1.112   .     S
C334   N343    1.464   .     S
C346   C347    1.403   .     A
C346   C351    1.403   .     A
C346   C352    1.502   .     S
C347   C348    1.398   .     A
C347   H353    1.083   .     S
C348   C349    1.398   .     A
C348   H354    1.082   .     S
C349   C350    1.404   .     A
C349   H355    1.083   .     S
C350   C351    1.404   .     A
C351   H356    1.084   .     S
C352   H357    1.112   .     S
C352   H358    1.113   .     S
C352   N381    1.463   .     S
C359   C360    1.404   .     A
C359   C361    1.503   1_655 S
C359   C364    1.404   1_655 A
C360   C366    1.405   .     A
C360   H370    1.084   .     S
C361   H371    1.113   .     S
C361   H378    1.112   .     S
C361   N382    1.463   .     S
C361   C359    1.503   1_455 S
C362   C363    1.523   .     S
C362   H374    1.113   .     S
C362   H377    1.114   .     S
C362   N382    1.463   .     S
C363   C373    1.525   .     S
C363   H375    1.112   .     S
C363   H376    1.112   .     S
C364   H367    1.083   .     S
C364   C359    1.404   1_455 A
C364   C365    1.396   1_455 A
C365   H368    1.082   .     S
C365   C383    1.396   .     A
C365   C364    1.396   1_655 A
C366   C383    1.404   .     A
H369   C383    1.083   .     S
C372   C373    1.521   .     S
C372   H379    1.113   .     S
C372   H380    1.113   .     S
C372   N381    1.461   .     S
C384   C385    1.403   .     A
C384   C389    1.407   .     A
C384   C390    1.505   1_545 S
C385   C386    1.394   .     A
C385   H391    1.083   1_655 S
C386   C387    1.395   .     A
C386   H392    1.082   1_655 S
C387   C388    1.407   .     A
C387   H393    1.083   .     S
C388   C389    1.411   .     A
C389   H394    1.083   .     S
C390   H396    1.112   .     S
C390   N419    1.465   .     S
C390   C384    1.505   1_565 S
C390   H395    1.113   1_565 S
H391   C385    1.083   1_455 S
H392   C386    1.082   1_455 S
H395   C390    1.113   1_545 S
C397   C398    1.406   .     A
C397   C399    1.503   .     S
C397   C402    1.404   1_455 A
C398   C404    1.405   .     A
C398   H408    1.083   .     S
C399   H409    1.114   .     S
C399   H416    1.112   .     S
C399   N420    1.466   .     S
C400   C401    1.526   .     S
C400   H412    1.115   .     S
C400   N420    1.466   .     S
C400   H415    1.112   1_455 S
C401   H414    1.112   .     S
C401   C411    1.528   1_455 S
C401   H413    1.111   1_455 S
C402   C403    1.397   .     A
C402   H405    1.083   .     S
C402   C397    1.404   1_655 A
C403   H406    1.083   .     S
C403   C421    1.397   1_655 A
C404   C421    1.404   .     A
H407   C421    1.083   .     S
C410   C411    1.523   .     S
C410   H417    1.111   .     S
C410   N419    1.463   .     S
C410   H418    1.113   1_655 S
C411   C401    1.528   1_655 S
H413   C401    1.111   1_655 S
H415   C400    1.112   1_655 S
H418   C410    1.113   1_455 S
C421   C403    1.397   1_455 A
C422   C423    1.404   .     A
C422   C427    1.407   .     A
C422   C428    1.502   .     S
C423   C424    1.394   .     A
C423   H429    1.083   .     S
C424   C425    1.395   .     A
C424   H430    1.083   .     S
C425   C426    1.401   .     A
C425   H431    1.077   .     S
C426   C427    1.405   .     A
C427   H432    1.084   .     S
C428   H433    1.113   .     S
C428   H434    1.112   .     S
C428   N457    1.463   .     S
C435   C436    1.404   .     A
C435   C437    1.501   .     S
C435   C440    1.405   .     A
C436   C442    1.400   .     A
C436   H446    1.081   .     S
C437   H447    1.113   .     S
C437   H454    1.112   .     S
C437   N458    1.465   .     S
C438   C439    1.526   .     S
C438   H450    1.114   .     S
C438   H453    1.115   .     S
C438   N458    1.462   .     S
C439   C449    1.523   .     S
C439   H452    1.112   .     S
C439   H451    1.113   1_655 S
C440   C441    1.397   .     A
C440   H443    1.082   .     S
C441   H444    1.083   .     S
C441   C459    1.396   .     A
C442   C459    1.401   .     A
H445   C459    1.083   .     S
C448   H455    1.112   .     S
C448   H456    1.112   .     S
C448   N457    1.458   .     S
C448   C449    1.521   1_455 S
C449   C448    1.521   1_655 S
H451   C439    1.113   1_455 S
C460   C461    1.408   .     A
C460   C465    1.408   .     A
C460   C466    1.511   .     S
C461   C462    1.395   .     A
C461   H467    1.082   .     S
C462   C463    1.394   .     A
C462   H468    1.083   .     S
C463   C464    1.404   .     A
C463   H469    1.084   .     S
C464   C465    1.405   .     A
C465   H470    1.084   .     S
C466   H471    1.113   .     S
C466   H472    1.110   .     S
C466   N495    1.469   .     S
C473   C475    1.505   .     S
C473   C478    1.404   .     A
C473   C474    1.407   1_655 A
C474   C480    1.407   .     A
C474   H484    1.084   .     S
C474   C473    1.407   1_455 A
C475   H485    1.114   .     S
C475   H492    1.110   .     S
C475   N496    1.467   .     S
C476   C477    1.525   .     S
C476   H488    1.112   .     S
C476   H491    1.112   .     S
C476   N496    1.464   .     S
C477   C487    1.526   .     S
C477   H489    1.112   .     S
C477   H490    1.112   .     S
C478   H481    1.082   .     S
C478   C479    1.395   1_655 A
C479   H482    1.083   .     S
C479   C497    1.395   .     A
C479   C478    1.395   1_455 A
C480   C497    1.407   .     A
H483   C497    1.083   .     S
C486   H493    1.111   .     S
C486   H494    1.113   .     S
C486   N495    1.465   .     S
C486   C487    1.521   1_554 S
C487   C486    1.521   1_556 S
C498   C499    1.405   .     A
C498   C503    1.409   .     A
C498   C504    1.504   .     S
C499   C500    1.393   .     A
C499   H505    1.083   .     S
C500   C501    1.394   .     A
C500   H506    1.083   .     S
C501   C502    1.408   .     A
C501   H507    1.083   .     S
C502   C503    1.407   .     A
C503   H508    1.084   .     S
C504   H509    1.113   .     S
C504   H510    1.111   .     S
C504   N533    1.468   .     S
C511   C512    1.410   .     A
C511   C513    1.505   .     S
C511   C516    1.404   .     A
C512   C518    1.408   .     A
C512   H522    1.084   .     S
C513   H523    1.114   .     S
C513   H530    1.112   .     S
C513   N534    1.468   .     S
C514   C515    1.528   .     S
C514   H526    1.113   .     S
C514   H529    1.113   .     S
C514   N534    1.465   .     S
C515   C525    1.528   .     S
C515   H527    1.112   .     S
C515   H528    1.112   .     S
C516   C517    1.394   .     A
C516   H519    1.083   .     S
C517   H520    1.082   .     S
C517   C535    1.395   .     A
C518   C535    1.406   .     A
H521   C535    1.083   .     S
C524   C525    1.524   .     S
C524   H531    1.111   .     S
C524   H532    1.113   .     S
C524   N533    1.463   .     S
