data_lcy+N144+E1
_audit_creation_date              2025-01-21
_audit_creation_method            'Materials Studio'
_symmetry_space_group_name_H-M    'P1'
_symmetry_Int_Tables_number       1
_symmetry_cell_setting            triclinic
loop_
_symmetry_equiv_pos_as_xyz
  x,y,z
_cell_length_a                    33.2864
_cell_length_b                    33.3233
_cell_length_c                    32.5599
_cell_angle_alpha                 86.1778
_cell_angle_beta                  86.1408
_cell_angle_gamma                 83.3877
loop_
_atom_site_label
_atom_site_type_symbol
_atom_site_fract_x
_atom_site_fract_y
_atom_site_fract_z
_atom_site_U_iso_or_equiv
_atom_site_adp_type
_atom_site_occupancy
C0     C     0.21095   0.67769   0.92402   0.00000  Uiso   1.00
Er1    Er    0.10378   0.60336   0.86210   0.00000  Uiso   1.00
Er2    Er    0.15258   0.64282   0.87239   0.00000  Uiso   1.00
C3     C     0.07833   0.66031   0.92979   0.00000  Uiso   1.00
O4     O     0.17786   0.59577   0.91558   0.00000  Uiso   1.00
C5     C     0.09418   0.68435   0.81245   0.00000  Uiso   1.00
C6     C     0.17823   0.59068   0.80094   0.00000  Uiso   1.00
C7     C     0.07422   0.54619   0.82523   0.00000  Uiso   1.00
O8     O     0.18936   0.66167   0.95034   0.00000  Uiso   1.00
O9     O     0.20024   0.68185   0.88324   0.00000  Uiso   1.00
O10    O     0.19107   0.61675   0.82215   0.00000  Uiso   1.00
O11    O     0.14386   0.57817   0.81130   0.00000  Uiso   1.00
O12    O     0.12669   0.68837   0.82926   0.00000  Uiso   1.00
O13    O     0.07775   0.65151   0.81908   0.00000  Uiso   1.00
C14    C     0.16106   0.56380   0.92530   0.00000  Uiso   1.00
O15    O     0.13000   0.55746   0.90694   0.00000  Uiso   1.00
O16    O     0.11312   0.67167   0.92092   0.00000  Uiso   1.00
O17    O     0.06732   0.63137   0.91179   0.00000  Uiso   1.00
O18    O     0.10892   0.55771   0.81560   0.00000  Uiso   1.00
O19    O     0.05545   0.56627   0.85335   0.00000  Uiso   1.00
C20    C     0.73263   0.89266   0.19069   0.00000  Uiso   1.00
Er21   Er    0.61282   0.86482   0.10666   0.00000  Uiso   1.00
Er22   Er    0.65453   0.87279   0.15620   0.00000  Uiso   1.00
C23    C     0.66813   0.92865   0.08105   0.00000  Uiso   1.00
O24    O     0.61137   0.92126   0.17799   0.00000  Uiso   1.00
C25    C     0.69310   0.81080   0.09900   0.00000  Uiso   1.00
C26    C     0.60013   0.80845   0.18401   0.00000  Uiso   1.00
C27    C     0.55576   0.82980   0.07582   0.00000  Uiso   1.00
O28    O     0.74887   0.87868   0.15934   0.00000  Uiso   1.00
O29    O     0.69426   0.88337   0.20518   0.00000  Uiso   1.00
O30    O     0.62634   0.82833   0.19756   0.00000  Uiso   1.00
O31    O     0.58898   0.81681   0.14733   0.00000  Uiso   1.00
O32    O     0.69755   0.82507   0.13334   0.00000  Uiso   1.00
O33    O     0.66052   0.82103   0.08049   0.00000  Uiso   1.00
C34    C     0.57760   0.93082   0.16194   0.00000  Uiso   1.00
O35    O     0.56762   0.91021   0.13335   0.00000  Uiso   1.00
O36    O     0.68337   0.91704   0.11507   0.00000  Uiso   1.00
O37    O     0.63814   0.91281   0.07026   0.00000  Uiso   1.00
O38    O     0.56829   0.82088   0.11162   0.00000  Uiso   1.00
O39    O     0.57429   0.85686   0.05661   0.00000  Uiso   1.00
C40    C     0.92114   0.19789   0.68408   0.00000  Uiso   1.00
Er41   Er    0.84535   0.09976   0.60990   0.00000  Uiso   1.00
Er42   Er    0.86195   0.14836   0.64851   0.00000  Uiso   1.00
C43    C     0.91606   0.06774   0.65846   0.00000  Uiso   1.00
O44    O     0.90176   0.16898   0.59916   0.00000  Uiso   1.00
C45    C     0.80341   0.10063   0.69715   0.00000  Uiso   1.00
C46    C     0.78875   0.17716   0.59933   0.00000  Uiso   1.00
C47    C     0.84868   0.06235   0.54132   0.00000  Uiso   1.00
O48    O     0.94385   0.17222   0.66667   0.00000  Uiso   1.00
O49    O     0.87949   0.19574   0.68639   0.00000  Uiso   1.00
O50    O     0.81175   0.18991   0.62432   0.00000  Uiso   1.00
O51    O     0.79620   0.14130   0.58782   0.00000  Uiso   1.00
O52    O     0.82250   0.13090   0.69902   0.00000  Uiso   1.00
O53    O     0.80671   0.08163   0.66415   0.00000  Uiso   1.00
C54    C     0.90727   0.15192   0.56550   0.00000  Uiso   1.00
O55    O     0.88769   0.12201   0.55983   0.00000  Uiso   1.00
O56    O     0.91011   0.10314   0.67216   0.00000  Uiso   1.00
O57    O     0.89404   0.05823   0.63131   0.00000  Uiso   1.00
O58    O     0.86890   0.09173   0.54606   0.00000  Uiso   1.00
O59    O     0.82744   0.05316   0.57344   0.00000  Uiso   1.00
C60    C     0.26643   0.32583   0.43765   0.00000  Uiso   1.00
Er61   Er    0.39566   0.38547   0.35655   0.00000  Uiso   1.00
Er62   Er    0.34417   0.35058   0.38462   0.00000  Uiso   1.00
C63    C     0.41990   0.33710   0.43404   0.00000  Uiso   1.00
O64    O     0.32257   0.40045   0.42265   0.00000  Uiso   1.00
C65    C     0.39696   0.30132   0.32340   0.00000  Uiso   1.00
C66    C     0.32130   0.39979   0.30577   0.00000  Uiso   1.00
C67    C     0.43580   0.44964   0.34652   0.00000  Uiso   1.00
O68    O     0.27081   0.35532   0.45628   0.00000  Uiso   1.00
O69    O     0.29597   0.31164   0.40807   0.00000  Uiso   1.00
O70    O     0.30682   0.37632   0.33422   0.00000  Uiso   1.00
O71    O     0.35679   0.40991   0.30803   0.00000  Uiso   1.00
O72    O     0.36570   0.30048   0.34757   0.00000  Uiso   1.00
O73    O     0.41587   0.33255   0.32073   0.00000  Uiso   1.00
C74    C     0.34246   0.43058   0.42329   0.00000  Uiso   1.00
O75    O     0.37258   0.43456   0.39726   0.00000  Uiso   1.00
O76    O     0.38449   0.32587   0.43325   0.00000  Uiso   1.00
O77    O     0.43296   0.36101   0.40557   0.00000  Uiso   1.00
O78    O     0.40448   0.44752   0.37091   0.00000  Uiso   1.00
O79    O     0.44532   0.41737   0.32831   0.00000  Uiso   1.00
C80    C     0.45825   0.77974   0.02621   0.00000  Uiso   1.00
C81    C     0.45846   0.78439   0.06903   0.00000  Uiso   1.00
C82    C     0.49092   0.79946   0.08548   0.00000  Uiso   1.00
C83    C     0.52285   0.81148   0.05920   0.00000  Uiso   1.00
C84    C     0.52199   0.80738   1.01678   0.00000  Uiso   1.00
C85    C     0.48983   0.79076   1.00115   0.00000  Uiso   1.00
C86    C     0.42336   0.76343   1.00900   0.00000  Uiso   1.00
C87    C     0.41155   0.77560   0.96892   0.00000  Uiso   1.00
C88    C     0.37910   0.76000   0.95286   0.00000  Uiso   1.00
C89    C     0.35617   0.73326   0.97708   0.00000  Uiso   1.00
C90    C     0.36739   0.72199   0.01753   0.00000  Uiso   1.00
C91    C     0.40093   0.73606   0.03286   0.00000  Uiso   1.00
C92    C     0.32011   0.71800   0.96106   0.00000  Uiso   1.00
C93    C     0.30739   0.68083   0.97688   0.00000  Uiso   1.00
C94    C     0.27171   0.66815   0.96496   0.00000  Uiso   1.00
C95    C     0.24880   0.69130   0.93553   0.00000  Uiso   1.00
C96    C     0.26222   0.72718   0.91776   0.00000  Uiso   1.00
C97    C     0.29719   0.74079   0.93086   0.00000  Uiso   1.00
H98    H     0.43333   0.77713   0.08994   0.00000  Uiso   1.00
H99    H     0.49041   0.80295   0.11836   0.00000  Uiso   1.00
H100   H     0.54646   0.81642   0.99583   0.00000  Uiso   1.00
H101   H     0.49117   0.78686   0.96834   0.00000  Uiso   1.00
H102   H     0.42694   0.79766   0.94990   0.00000  Uiso   1.00
H103   H     0.37214   0.76918   0.92141   0.00000  Uiso   1.00
H104   H     0.34996   0.70273   0.03799   0.00000  Uiso   1.00
H105   H     0.40904   0.72531   0.06361   0.00000  Uiso   1.00
H106   H     0.32476   0.66134  -0.00128   0.00000  Uiso   1.00
H107   H     0.26212   0.63994   0.97852   0.00000  Uiso   1.00
H108   H     0.24484   0.74541   0.89494   0.00000  Uiso   1.00
H109   H     0.30534   0.76975   0.91808   0.00000  Uiso   1.00
C110   C     0.43685   0.19442   0.25746   0.00000  Uiso   1.00
C111   C     0.39672   0.20179   0.27383   0.00000  Uiso   1.00
C112   C     0.38396   0.23670   0.29476   0.00000  Uiso   1.00
C113   C     0.41066   0.26572   0.29908   0.00000  Uiso   1.00
C114   C     0.45031   0.25937   0.28137   0.00000  Uiso   1.00
C115   C     0.46336   0.22397   0.26106   0.00000  Uiso   1.00
C116   C     0.45156   0.15536   0.23856   0.00000  Uiso   1.00
C117   C     0.48137   0.15396   0.20581   0.00000  Uiso   1.00
C118   C     0.49816   0.11696   0.19089   0.00000  Uiso   1.00
C119   C     0.48519   0.08045   0.20789   0.00000  Uiso   1.00
C120   C     0.45394   0.08170   0.23904   0.00000  Uiso   1.00
C121   C     0.43751   0.11873   0.25448   0.00000  Uiso   1.00
C122   C     0.50754   0.04136   0.19629   0.00000  Uiso   1.00
C123   C     0.48768   1.00951   0.18384   0.00000  Uiso   1.00
C124   C     0.51004   0.97297   0.17285   0.00000  Uiso   1.00
C125   C     0.55235   0.96772   0.17498   0.00000  Uiso   1.00
C126   C     0.57181   0.99938   0.18825   0.00000  Uiso   1.00
C127   C     0.54973   0.03577   0.19845   0.00000  Uiso   1.00
H128   H     0.37507   0.18050   0.27061   0.00000  Uiso   1.00
H129   H     0.35308   0.24088   0.30785   0.00000  Uiso   1.00
H130   H     0.47162   0.28107   0.28441   0.00000  Uiso   1.00
H131   H     0.49460   0.21929   0.24924   0.00000  Uiso   1.00
H132   H     0.49231   0.18144   0.19208   0.00000  Uiso   1.00
H133   H     0.52213   0.11672   0.16666   0.00000  Uiso   1.00
H134   H     0.44382   0.05387   0.25296   0.00000  Uiso   1.00
H135   H     0.41510   0.11840   0.28015   0.00000  Uiso   1.00
H136   H     0.45510   1.01317   0.18195   0.00000  Uiso   1.00
H137   H     0.49442   0.94885   0.16299   0.00000  Uiso   1.00
H138   H     0.60445   0.99639   0.18982   0.00000  Uiso   1.00
H139   H     0.56566   0.05966   0.20832   0.00000  Uiso   1.00
C140   C     0.67828   0.24354   0.55815   0.00000  Uiso   1.00
C141   C     0.69285   0.20548   0.54384   0.00000  Uiso   1.00
C142   C     0.72920   0.18526   0.55632   0.00000  Uiso   1.00
C143   C     0.75232   0.20210   0.58397   0.00000  Uiso   1.00
C144   C     0.73832   0.24049   0.59816   0.00000  Uiso   1.00
C145   C     0.70144   0.26102   0.58547   0.00000  Uiso   1.00
C146   C     0.63807   0.26295   0.54551   0.00000  Uiso   1.00
C147   C     0.60996   0.28293   0.57373   0.00000  Uiso   1.00
C148   C     0.57014   0.29558   0.56291   0.00000  Uiso   1.00
C149   C     0.55774   0.28739   0.52422   0.00000  Uiso   1.00
C150   C     0.58629   0.26949   0.49546   0.00000  Uiso   1.00
C151   C     0.62605   0.25796   0.50571   0.00000  Uiso   1.00
C152   C     0.51587   0.29888   0.51194   0.00000  Uiso   1.00
C153   C     0.49426   0.26987   0.49643   0.00000  Uiso   1.00
C154   C     0.45970   0.28192   0.47449   0.00000  Uiso   1.00
C155   C     0.44697   0.32319   0.46721   0.00000  Uiso   1.00
C156   C     0.46665   0.35191   0.48561   0.00000  Uiso   1.00
C157   C     0.50053   0.33979   0.50836   0.00000  Uiso   1.00
H158   H     0.67544   0.19043   0.52384   0.00000  Uiso   1.00
H159   H     0.73856   0.15563   0.54492   0.00000  Uiso   1.00
H160   H     0.75540   0.25420   0.61954   0.00000  Uiso   1.00
H161   H     0.69101   0.29033   0.59714   0.00000  Uiso   1.00
H162   H     0.61822   0.28735   0.60458   0.00000  Uiso   1.00
H163   H     0.54871   0.31040   0.58512   0.00000  Uiso   1.00
H164   H     0.57771   0.26435   0.46488   0.00000  Uiso   1.00
H165   H     0.64722   0.24412   0.48266   0.00000  Uiso   1.00
H166   H     0.50574   0.23812   0.49909   0.00000  Uiso   1.00
H167   H     0.44529   0.25934   0.46015   0.00000  Uiso   1.00
H168   H     0.45742   0.38395   0.47996   0.00000  Uiso   1.00
H169   H     0.51673   0.36258   0.52005   0.00000  Uiso   1.00
C170   C     0.74931   0.06066   0.81336   0.00000  Uiso   1.00
C171   C     0.75550   0.03417   0.78093   0.00000  Uiso   1.00
C172   C     0.77051   0.04756   0.74174   0.00000  Uiso   1.00
C173   C     0.77959   0.08758   0.73454   0.00000  Uiso   1.00
C174   C     0.77089   0.11452   0.76623   0.00000  Uiso   1.00
C175   C     0.75613   0.10123   0.80511   0.00000  Uiso   1.00
C176   C     0.73913   0.04580   0.85639   0.00000  Uiso   1.00
C177   C     0.71400   0.07043   0.88331   0.00000  Uiso   1.00
C178   C     0.70667   0.05738   0.92447   0.00000  Uiso   1.00
C179   C     0.72373   1.01915   0.93949   0.00000  Uiso   1.00
C180   C     0.74919   0.99473   0.91279   0.00000  Uiso   1.00
C181   C     0.75693   1.00797   0.87175   0.00000  Uiso   1.00
C182   C     0.71168   1.00295   0.98139   0.00000  Uiso   1.00
C183   C     0.73952   0.97829   1.00548   0.00000  Uiso   1.00
C184   C     0.72600   0.95685   0.04121   0.00000  Uiso   1.00
C185   C     0.68451   0.95946   0.05267   0.00000  Uiso   1.00
C186   C     0.65727   0.98651   0.03060   0.00000  Uiso   1.00
C187   C     0.67072   1.00817   0.99538   0.00000  Uiso   1.00
H188   H     0.74997   1.00281   0.78620   0.00000  Uiso   1.00
H189   H     0.77713   0.02616   0.71793   0.00000  Uiso   1.00
H190   H     0.77756   0.14562   0.76166   0.00000  Uiso   1.00
H191   H     0.75237   0.12232   0.82932   0.00000  Uiso   1.00
H192   H     0.69961   0.09967   0.87249   0.00000  Uiso   1.00
H193   H     0.68720   0.07698   0.94448   0.00000  Uiso   1.00
H194   H     0.76218   0.96483   0.92327   0.00000  Uiso   1.00
H195   H     0.77717   0.98867   0.85217   0.00000  Uiso   1.00
H196   H     0.77136   0.97404   0.99559   0.00000  Uiso   1.00
H197   H     0.74732   0.93580   0.05780   0.00000  Uiso   1.00
H198   H     0.62506   0.98886   0.03909   0.00000  Uiso   1.00
H199   H     0.64847   0.02649   0.97737   0.00000  Uiso   1.00
C200   C     0.83694   0.01153   0.42646   0.00000  Uiso   1.00
C201   C     0.86242   0.04204   0.42839   0.00000  Uiso   1.00
C202   C     0.86815   0.05740   0.46621   0.00000  Uiso   1.00
C203   C     0.84830   0.04249   0.50249   0.00000  Uiso   1.00
C204   C     0.82494   0.01033   0.50092   0.00000  Uiso   1.00
C205   C     0.81954  -0.00524   0.46332   0.00000  Uiso   1.00
C206   C     0.82496   0.00010   0.38623   0.00000  Uiso   1.00
C207   C     0.78437  -0.00519   0.38172   0.00000  Uiso   1.00
C208   C     0.77220   0.98343   0.34465   0.00000  Uiso   1.00
C209   C     0.80012   0.97759   0.31065   0.00000  Uiso   1.00
C210   C     0.84061   0.98440   0.31449   0.00000  Uiso   1.00
C211   C     0.85293   0.99562   0.35204   0.00000  Uiso   1.00
C212   C     0.78663   0.96196   0.27281   0.00000  Uiso   1.00
C213   C     0.81087   0.93147   0.25172   0.00000  Uiso   1.00
C214   C     0.79420   0.91028   0.22249   0.00000  Uiso   1.00
C215   C     0.75314   0.91913   0.21450   0.00000  Uiso   1.00
C216   C     0.73010   0.95179   0.23272   0.00000  Uiso   1.00
C217   C     0.74687   0.97345   0.26104   0.00000  Uiso   1.00
H218   H     0.87595   0.05563   0.40047   0.00000  Uiso   1.00
H219   H     0.88644   0.08220   0.46677   0.00000  Uiso   1.00
H220   H     0.80945  -0.00167   0.52860   0.00000  Uiso   1.00
H221   H     0.80040  -0.02939   0.46299   0.00000  Uiso   1.00
H222   H     0.76175  -0.00025   0.40691   0.00000  Uiso   1.00
H223   H     0.74086  -0.02175   0.34310   0.00000  Uiso   1.00
H224   H     0.86269   0.98100   0.28862   0.00000  Uiso   1.00
H225   H     0.88429   1.00041   0.35445   0.00000  Uiso   1.00
H226   H     0.84170   0.92206   0.25980   0.00000  Uiso   1.00
H227   H     0.81246   0.88525   0.20838   0.00000  Uiso   1.00
H228   H     0.69860   0.95970   0.22606   0.00000  Uiso   1.00
H229   H     0.72785   0.99773   0.27557   0.00000  Uiso   1.00
C230   C     0.31021   0.49599   0.53130   0.00000  Uiso   1.00
C231   C     0.28785   0.50542   0.49607   0.00000  Uiso   1.00
C232   C     0.29926   0.48574   0.45957   0.00000  Uiso   1.00
C233   C     0.33387   0.45748   0.45756   0.00000  Uiso   1.00
C234   C     0.35726   0.44963   0.49206   0.00000  Uiso   1.00
C235   C     0.34543   0.46849   0.52867   0.00000  Uiso   1.00
C236   C     0.29475   0.51115   0.57185   0.00000  Uiso   1.00
C237   C     0.29051   0.48350   0.60594   0.00000  Uiso   1.00
C238   C     0.27400   0.49671   0.64390   0.00000  Uiso   1.00
C239   C     0.26200   0.53796   0.64887   0.00000  Uiso   1.00
C240   C     0.26749   0.56591   0.61520   0.00000  Uiso   1.00
C241   C     0.28323   0.55254   0.57679   0.00000  Uiso   1.00
C242   C     0.24184   0.55114   0.68852   0.00000  Uiso   1.00
C243   C     0.25397   0.58371   0.70812   0.00000  Uiso   1.00
C244   C     0.23434   0.59583   0.74549   0.00000  Uiso   1.00
C245   C     0.20187   0.57600   0.76357   0.00000  Uiso   1.00
C246   C     0.19002   0.54340   0.74382   0.00000  Uiso   1.00
C247   C     0.20987   0.53099   0.70695   0.00000  Uiso   1.00
H248   H     0.26036   0.52624   0.49750   0.00000  Uiso   1.00
H249   H     0.28039   0.49142   0.43352   0.00000  Uiso   1.00
H250   H     0.38348   0.42709   0.49145   0.00000  Uiso   1.00
H251   H     0.36299   0.46055   0.55546   0.00000  Uiso   1.00
H252   H     0.29902   0.45143   0.60289   0.00000  Uiso   1.00
H253   H     0.27039   0.47461   0.66944   0.00000  Uiso   1.00
H254   H     0.25850   0.59790   0.61831   0.00000  Uiso   1.00
H255   H     0.28646   0.57442   0.55100   0.00000  Uiso   1.00
H256   H     0.27871   0.59956   0.69460   0.00000  Uiso   1.00
H257   H     0.24404   0.62124   0.75978   0.00000  Uiso   1.00
H258   H     0.16507   0.52770   0.75665   0.00000  Uiso   1.00
H259   H     0.19960   0.50607   0.69230   0.00000  Uiso   1.00
C260   C     0.20190   0.49646   0.03484   0.00000  Uiso   1.00
C261   C     0.16503   0.48956   0.01932   0.00000  Uiso   1.00
C262   C     0.15253   0.50940   0.98205   0.00000  Uiso   1.00
C263   C     0.17688   0.53624   0.95974   0.00000  Uiso   1.00
C264   C     0.21486   0.54081   0.97415   0.00000  Uiso   1.00
C265   C     0.22717   0.52121   0.01113   0.00000  Uiso   1.00
C266   C     0.21298   0.48155   0.07710   0.00000  Uiso   1.00
C267   C     0.22614   0.50864   0.10317   0.00000  Uiso   1.00
C268   C     0.23965   0.49533   0.14185   0.00000  Uiso   1.00
C269   C     0.24114   0.45430   0.15548   0.00000  Uiso   1.00
C270   C     0.22649   0.42724   0.13011   0.00000  Uiso   1.00
C271   C     0.21231   0.44081   0.09129   0.00000  Uiso   1.00
C272   C     0.26035   0.44011   0.19476   0.00000  Uiso   1.00
C273   C     0.24474   0.41050   0.22227   0.00000  Uiso   1.00
C274   C     0.26348   0.39801   0.25919   0.00000  Uiso   1.00
C275   C     0.29840   0.41467   0.26902   0.00000  Uiso   1.00
C276   C     0.31372   0.44425   0.24144   0.00000  Uiso   1.00
C277   C     0.29511   0.45665   0.20494   0.00000  Uiso   1.00
H278   H     0.14488   0.47081   0.03717   0.00000  Uiso   1.00
H279   H     0.12292   0.50559   0.97200   0.00000  Uiso   1.00
H280   H     0.23449   0.56103   0.95773   0.00000  Uiso   1.00
H281   H     0.25595   0.52666   0.02213   0.00000  Uiso   1.00
H282   H     0.22630   0.54032   0.09336   0.00000  Uiso   1.00
H283   H     0.24965   0.51725   0.16089   0.00000  Uiso   1.00
H284   H     0.22751   0.39538   0.13954   0.00000  Uiso   1.00
H285   H     0.20229   0.41927   0.07180   0.00000  Uiso   1.00
H286   H     0.21807   0.39710   0.21525   0.00000  Uiso   1.00
H287   H     0.25118   0.37477   0.27949   0.00000  Uiso   1.00
H288   H     0.34076   0.45749   0.24765   0.00000  Uiso   1.00
H289   H     0.30864   0.47868   0.18410   0.00000  Uiso   1.00
C290   C     0.15832   0.26579   0.46019   0.00000  Uiso   1.00
C291   C     0.19130   0.24837   0.43579   0.00000  Uiso   1.00
C292   C     0.22652   0.26777   0.42867   0.00000  Uiso   1.00
C293   C     0.22969   0.30459   0.44642   0.00000  Uiso   1.00
C294   C     0.19701   0.32131   0.47179   0.00000  Uiso   1.00
C295   C     0.16162   0.30226   0.47833   0.00000  Uiso   1.00
C296   C     0.12006   0.24674   0.46605   0.00000  Uiso   1.00
C297   C     0.08315   0.26950   0.45741   0.00000  Uiso   1.00
C298   C     0.04669   0.25248   0.46453   0.00000  Uiso   1.00
C299   C     0.04609   0.21259   0.48161   0.00000  Uiso   1.00
C300   C     0.08328   0.18948   0.48927   0.00000  Uiso   1.00
C301   C     0.11992   0.20631   0.48125   0.00000  Uiso   1.00
C302   C     0.00688   0.19703   0.49564   0.00000  Uiso   1.00
C303   C     0.00137   0.15572   0.49485   0.00000  Uiso   1.00
C304   C     0.96656   0.14088   0.51418   0.00000  Uiso   1.00
C305   C     0.93717   0.16716   0.53481   0.00000  Uiso   1.00
C306   C     0.94132   0.20861   0.53298   0.00000  Uiso   1.00
C307   C     0.97563   0.22337   0.51372   0.00000  Uiso   1.00
H308   H     0.18936   0.22031   0.42140   0.00000  Uiso   1.00
H309   H     0.25117   0.25405   0.40905   0.00000  Uiso   1.00
H310   H     0.19856   0.34948   0.48609   0.00000  Uiso   1.00
H311   H     0.13672   0.31596   0.49770   0.00000  Uiso   1.00
H312   H     0.08252   0.30063   0.44533   0.00000  Uiso   1.00
H313   H     0.01879   0.27095   0.45746   0.00000  Uiso   1.00
H314   H     0.08400   0.15899   0.50318   0.00000  Uiso   1.00
H315   H     0.14804   0.18831   0.48851   0.00000  Uiso   1.00
H316   H     0.02464   0.13465   0.48082   0.00000  Uiso   1.00
H317   H     0.96411   0.10867   0.51565   0.00000  Uiso   1.00
H318   H     0.91913   0.22933   0.54905   0.00000  Uiso   1.00
H319   H     0.97875   0.25512   0.51570   0.00000  Uiso   1.00
C320   C     0.98327   0.96040   0.70484   0.00000  Uiso   1.00
C321   C     0.98165   0.96921   0.66224   0.00000  Uiso   1.00
C322   C     0.96354   0.00649   0.64708   0.00000  Uiso   1.00
C323   C     0.94653   0.03584   0.67414   0.00000  Uiso   1.00
C324   C     0.95146   0.02875   0.71658   0.00000  Uiso   1.00
C325   C     0.96971   0.99109   0.73190   0.00000  Uiso   1.00
C326   C     0.99620   0.91837   0.72043   0.00000  Uiso   1.00
C327   C     1.02345   0.91052   0.75174   0.00000  Uiso   1.00
C328   C     0.03659   0.87064   0.76482   0.00000  Uiso   1.00
C329   C     1.02278   0.83790   0.74682   0.00000  Uiso   1.00
C330   C     0.99469   0.84571   0.71634   0.00000  Uiso   1.00
C331   C     0.98157   0.88558   0.70323   0.00000  Uiso   1.00
C332   C     0.04024   0.79602   0.75801   0.00000  Uiso   1.00
C333   C     0.01578   0.76482   0.76939   0.00000  Uiso   1.00
C334   C     0.03335   0.72674   0.78444   0.00000  Uiso   1.00
C335   C     0.07552   0.71953   0.78767   0.00000  Uiso   1.00
C336   C     0.09982   0.74981   0.77294   0.00000  Uiso   1.00
C337   C     0.08237   0.78763   0.75865   0.00000  Uiso   1.00
H338   H     0.99262   0.94644   0.64070   0.00000  Uiso   1.00
H339   H     0.96021   0.01134   0.61417   0.00000  Uiso   1.00
H340   H     0.93817   0.05081   0.73800   0.00000  Uiso   1.00
H341   H     0.97063   0.98503   0.76495   0.00000  Uiso   1.00
H342   H     1.03553   0.93512   0.76518   0.00000  Uiso   1.00
H343   H     0.05814   0.86526   0.78862   0.00000  Uiso   1.00
H344   H     0.98405   0.82102   0.70167   0.00000  Uiso   1.00
H345   H     0.96017   0.89087   0.67930   0.00000  Uiso   1.00
H346   H    -0.01687   0.77049   0.76870   0.00000  Uiso   1.00
H347   H     0.01395   0.70395   0.79586   0.00000  Uiso   1.00
H348   H     0.13247   0.74494   0.77439   0.00000  Uiso   1.00
H349   H     0.10183   0.81088   0.74913   0.00000  Uiso   1.00
C350   C     0.02872   0.44385   0.77893   0.00000  Uiso   1.00
C351   C     1.00293   0.47171   0.80171   0.00000  Uiso   1.00
C352   C     0.01762   0.50548   0.81598   0.00000  Uiso   1.00
C353   C     0.05824   0.51225   0.80736   0.00000  Uiso   1.00
C354   C     0.08391   0.48474   0.78411   0.00000  Uiso   1.00
C355   C     0.06929   0.45085   0.76994   0.00000  Uiso   1.00
C356   C     1.01361   0.40683   0.76609   0.00000  Uiso   1.00
C357   C     0.03662   0.36899   0.77153   0.00000  Uiso   1.00
C358   C     0.02182   0.33390   0.76047   0.00000  Uiso   1.00
C359   C     0.98374   0.33602   0.74378   0.00000  Uiso   1.00
C360   C     0.96088   0.37391   0.73816   0.00000  Uiso   1.00
C361   C     0.97562   0.40894   0.74930   0.00000  Uiso   1.00
C362   C     0.96823   0.29910   0.73109   0.00000  Uiso   1.00
C363   C     0.92715   0.29335   0.73868   0.00000  Uiso   1.00
C364   C     0.91198   0.25998   0.72408   0.00000  Uiso   1.00
C365   C     0.93765   0.23166   0.70178   0.00000  Uiso   1.00
C366   C     0.97898   0.23670   0.69533   0.00000  Uiso   1.00
C367   C     0.99409   0.27014   0.70976   0.00000  Uiso   1.00
H368   H     0.97167   0.46676   0.80950   0.00000  Uiso   1.00
H369   H     0.99735   0.52596   0.83434   0.00000  Uiso   1.00
H370   H     0.11553   0.48868   0.77791   0.00000  Uiso   1.00
H371   H     0.08973   0.42997   0.75217   0.00000  Uiso   1.00
H372   H     0.06571   0.36645   0.78507   0.00000  Uiso   1.00
H373   H     0.03992   0.30505   0.76548   0.00000  Uiso   1.00
H374   H     0.93185   0.37653   0.72449   0.00000  Uiso   1.00
H375   H     0.95755   0.43779   0.74430   0.00000  Uiso   1.00
H376   H     0.90668   0.31483   0.75567   0.00000  Uiso   1.00
H377   H     0.88012   0.25652   0.73003   0.00000  Uiso   1.00
H378   H     0.99946   0.21539   0.67812   0.00000  Uiso   1.00
H379   H     1.02582   0.27385   0.70331   0.00000  Uiso   1.00
C380   C     0.80546   0.75509   0.04911   0.00000  Uiso   1.00
C381   C     0.77884   0.77883   0.02323   0.00000  Uiso   1.00
C382   C     0.73992   0.79345   0.03837   0.00000  Uiso   1.00
C383   C     0.72773   0.78560   0.07997   0.00000  Uiso   1.00
C384   C     0.75375   0.76029   0.10526   0.00000  Uiso   1.00
C385   C     0.79213   0.74473   0.08979   0.00000  Uiso   1.00
C386   C     0.84806   0.74376   0.03492   0.00000  Uiso   1.00
C387   C     0.86477   0.70320   0.03717   0.00000  Uiso   1.00
C388   C     0.90547   0.69275   1.02490   0.00000  Uiso   1.00
C389   C     0.93064   0.72281   1.01110   0.00000  Uiso   1.00
C390   C     0.91367   0.76353   1.00944   0.00000  Uiso   1.00
C391   C     0.87274   0.77383   1.02083   0.00000  Uiso   1.00
C392   C     0.97356   0.71137   0.99621   0.00000  Uiso   1.00
C393   C     0.99145   0.73367   0.96297   0.00000  Uiso   1.00
C394   C     0.02878   0.71909   0.94426   0.00000  Uiso   1.00
C395   C     0.04864   0.68179   0.95804   0.00000  Uiso   1.00
C396   C     0.03247   0.66080   0.99280   0.00000  Uiso   1.00
C397   C     0.99576   0.67596   1.01241   0.00000  Uiso   1.00
H398   H     0.78873   0.78709   0.99175   0.00000  Uiso   1.00
H399   H     0.72070   0.81353   0.01852   0.00000  Uiso   1.00
H400   H     0.74517   0.75432   0.13759   0.00000  Uiso   1.00
H401   H     0.81235   0.72668   0.11027   0.00000  Uiso   1.00
H402   H     0.84606   0.67958   0.04774   0.00000  Uiso   1.00
H403   H     0.91682   0.66097   0.02537   0.00000  Uiso   1.00
H404   H     0.93195   0.78759   0.99945   0.00000  Uiso   1.00
H405   H     0.86051   0.80542   1.01939   0.00000  Uiso   1.00
H406   H     0.97540   0.76082   0.94927   0.00000  Uiso   1.00
H407   H     0.04023   0.73508   0.91665   0.00000  Uiso   1.00
H408   H     0.04709   0.63152   1.00328   0.00000  Uiso   1.00
H409   H     0.98384   0.65881   1.03897   0.00000  Uiso   1.00
C410   C     0.55577   0.70514   0.25098   0.00000  Uiso   1.00
C411   C     0.58287   0.72711   0.26913   0.00000  Uiso   1.00
C412   C     0.59645   0.76177   0.24826   0.00000  Uiso   1.00
C413   C     0.58300   0.77494   0.20907   0.00000  Uiso   1.00
C414   C     0.55415   0.75406   0.19229   0.00000  Uiso   1.00
C415   C     0.54071   0.71976   0.21300   0.00000  Uiso   1.00
C416   C     0.54406   0.66611   0.26999   0.00000  Uiso   1.00
C417   C     0.54437   0.63305   0.24532   0.00000  Uiso   1.00
C418   C     0.52977   0.59730   0.26135   0.00000  Uiso   1.00
C419   C     0.51489   0.59338   0.30267   0.00000  Uiso   1.00
C420   C     0.51577   0.62602   0.32785   0.00000  Uiso   1.00
C421   C     0.53044   0.66202   0.31166   0.00000  Uiso   1.00
C422   C     0.49698   0.55590   0.31826   0.00000  Uiso   1.00
C423   C     0.46080   0.55794   0.34341   0.00000  Uiso   1.00
C424   C     0.44152   0.52311   0.35385   0.00000  Uiso   1.00
C425   C     0.45793   0.48568   0.33917   0.00000  Uiso   1.00
C426   C     0.49480   0.48330   0.31538   0.00000  Uiso   1.00
C427   C     0.51422   0.51794   0.30526   0.00000  Uiso   1.00
H428   H     0.59456   0.71670   0.29866   0.00000  Uiso   1.00
H429   H     0.61832   0.77750   0.26215   0.00000  Uiso   1.00
H430   H     0.54262   0.76344   0.16248   0.00000  Uiso   1.00
H431   H     0.51879   0.70420   0.19896   0.00000  Uiso   1.00
H432   H     0.55537   0.63509   0.21324   0.00000  Uiso   1.00
H433   H     0.52893   0.57313   0.24088   0.00000  Uiso   1.00
H434   H     0.50482   0.62386   0.35991   0.00000  Uiso   1.00
H435   H     0.52993   0.68709   0.33127   0.00000  Uiso   1.00
H436   H     0.44641   0.58673   0.35344   0.00000  Uiso   1.00
H437   H     0.41298   0.52572   0.37204   0.00000  Uiso   1.00
H438   H     0.50825   0.45475   0.30384   0.00000  Uiso   1.00
H439   H     0.54238   0.51514   0.28644   0.00000  Uiso   1.00
loop_
_geom_bond_atom_site_label_1
_geom_bond_atom_site_label_2
_geom_bond_distance
_geom_bond_site_symmetry_2
_ccdc_geom_bond_type
C0     O8      1.217   .     D
C0     O9      1.392   .     S
C0     C95     1.467   .     S
Er1    O11     2.202   .     S
Er1    O13     2.198   .     S
Er1    O15     2.191   .     S
Er1    O17     2.154   .     S
Er1    O18     2.202   .     S
Er1    O19     2.183   .     S
Er2    O4      2.169   .     S
Er2    O9      2.224   .     S
Er2    O10     2.173   .     S
Er2    O12     2.144   .     S
Er2    O16     2.186   .     S
C3     O16     1.269   .     A
C3     O17     1.262   .     A
C3     C395    1.462   .     S
O4     C14     1.271   .     A
C5     O12     1.269   .     A
C5     O13     1.278   .     A
C5     C335    1.478   .     S
C6     O10     1.273   .     A
C6     O11     1.279   .     A
C6     C245    1.484   .     S
C7     O18     1.272   .     A
C7     O19     1.259   .     A
C7     C353    1.472   .     S
C14    O15     1.273   .     A
C14    C263    1.486   .     S
C20    O28     1.218   .     D
C20    O29     1.393   .     S
C20    C215    1.465   .     S
Er21   O31     2.194   .     S
Er21   O33     2.197   .     S
Er21   O35     2.187   .     S
Er21   O37     2.143   .     S
Er21   O38     2.192   .     S
Er21   O39     2.188   .     S
Er22   O24     2.158   .     S
Er22   O29     2.210   .     S
Er22   O30     2.185   .     S
Er22   O32     2.150   .     S
Er22   O36     2.186   .     S
C23    O36     1.268   .     A
C23    O37     1.262   .     A
C23    C185    1.463   .     S
O24    C34     1.270   .     A
C25    O32     1.268   .     A
C25    O33     1.277   .     A
C25    C383    1.472   .     S
C26    O30     1.272   .     A
C26    O31     1.278   .     A
C26    C413    1.483   .     S
C27    O38     1.270   .     A
C27    O39     1.259   .     A
C27    C83     1.464   .     S
C34    O35     1.276   .     A
C34    C125    1.477   .     S
C40    O48     1.217   .     D
C40    O49     1.393   .     S
C40    C365    1.474   .     S
Er41   O51     2.148   .     S
Er41   O53     2.207   .     S
Er41   O55     2.228   .     S
Er41   O57     2.129   .     S
Er41   O58     2.194   .     S
Er41   O59     2.175   .     S
Er42   O44     2.142   .     S
Er42   O49     2.219   .     S
Er42   O50     2.197   .     S
Er42   O52     2.127   .     S
Er42   O56     2.211   .     S
C43    O56     1.278   .     A
C43    O57     1.264   .     A
C43    C323    1.473   .     S
O44    C54     1.261   .     A
C45    O52     1.259   .     A
C45    O53     1.275   .     A
C45    C173    1.476   .     S
C46    O50     1.278   .     A
C46    O51     1.268   .     A
C46    C143    1.485   .     S
C47    O58     1.273   .     A
C47    O59     1.263   .     A
C47    C203    1.467   .     S
C54    O55     1.282   .     A
C54    C305    1.470   .     S
C60    O68     1.216   .     D
C60    O69     1.394   .     S
C60    C293    1.484   .     S
Er61   O71     2.167   .     S
Er61   O73     2.195   .     S
Er61   O75     2.211   .     S
Er61   O77     2.148   .     S
Er61   O78     2.206   .     S
Er61   O79     2.186   .     S
Er62   O64     2.166   .     S
Er62   O69     2.242   .     S
Er62   O70     2.194   .     S
Er62   O72     2.152   .     S
Er62   O76     2.201   .     S
C63    O76     1.279   .     A
C63    O77     1.269   .     A
C63    C155    1.470   .     S
O64    C74     1.267   .     A
C65    O72     1.263   .     A
C65    O73     1.272   .     A
C65    C113    1.482   .     S
C66    O70     1.277   .     A
C66    O71     1.273   .     A
C66    C275    1.488   .     S
C67    O78     1.273   .     A
C67    O79     1.261   .     A
C67    C425    1.478   .     S
C74    O75     1.281   .     A
C74    C233    1.470   .     S
C80    C81     1.414   .     A
C80    C85     1.356   1_554 D
C80    C86     1.494   1_554 S
C81    C82     1.395   .     A
C81    H98     1.081   .     S
C82    C83     1.397   .     A
C82    H99     1.083   .     S
C83    C84     1.399   1_554 A
C84    C85     1.400   .     A
C84    H100    1.083   .     S
C84    C83     1.399   1_556 A
C85    H101    1.082   .     S
C85    C80     1.356   1_556 D
C86    C87     1.408   .     A
C86    C80     1.494   1_556 S
C86    C91     1.406   1_556 A
C87    C88     1.397   .     A
C87    H102    1.082   .     S
C88    C89     1.407   .     A
C88    H103    1.081   .     S
C89    C92     1.494   .     S
C89    C90     1.408   1_556 A
C90    C91     1.394   .     A
C90    H104    1.081   .     S
C90    C89     1.408   1_554 A
C91    H105    1.082   .     S
C91    C86     1.406   1_554 A
C92    C93     1.409   .     A
C92    C97     1.412   .     A
C93    C94     1.393   .     A
C93    H106    1.081   1_556 S
C94    C95     1.400   .     A
C94    H107    1.084   .     S
C95    C96     1.400   .     A
C96    C97     1.399   .     A
C96    H108    1.083   .     S
C97    H109    1.081   .     S
H106   C93     1.081   1_554 S
C110   C111    1.405   .     A
C110   C115    1.411   .     A
C110   C116    1.494   .     S
C111   C112    1.397   .     A
C111   H128    1.082   .     S
C112   C113    1.406   .     A
C112   H129    1.083   .     S
C113   C114    1.403   .     A
C114   C115    1.402   .     A
C114   H130    1.083   .     S
C115   H131    1.082   .     S
C116   C117    1.406   .     A
C116   C121    1.411   .     A
C117   C118    1.397   .     A
C117   H132    1.082   .     S
C118   C119    1.404   .     A
C118   H133    1.083   .     S
C119   C120    1.402   .     A
C119   C122    1.483   .     S
C120   C121    1.402   .     A
C120   H134    1.083   .     S
C121   H135    1.082   .     S
C122   C127    1.401   .     A
C122   C123    1.408   1_545 A
C123   C124    1.406   .     A
C123   H136    1.083   .     S
C123   C122    1.408   1_565 A
C124   C125    1.405   .     A
C124   H137    1.083   .     S
C125   C126    1.405   .     A
C126   H138    1.084   .     S
C126   C127    1.392   1_565 A
C127   H139    1.083   .     S
C127   C126    1.392   1_545 A
C140   C141    1.403   .     A
C140   C145    1.411   .     A
C140   C146    1.489   .     S
C141   C142    1.388   .     A
C141   H158    1.083   .     S
C142   C143    1.406   .     A
C142   H159    1.083   .     S
C143   C144    1.407   .     A
C144   C145    1.408   .     A
C144   H160    1.083   .     S
C145   H161    1.083   .     S
C146   C147    1.409   .     A
C146   C151    1.407   .     A
C147   C148    1.405   .     A
C147   H162    1.083   .     S
C148   C149    1.405   .     A
C148   H163    1.083   .     S
C149   C150    1.400   .     A
C149   C152    1.477   .     S
C150   C151    1.391   .     A
C150   H164    1.084   .     S
C151   H165    1.083   .     S
C152   C153    1.407   .     A
C152   C157    1.400   .     A
C153   C154    1.400   .     A
C153   H166    1.083   .     S
C154   C155    1.401   .     A
C154   H167    1.084   .     S
C155   C156    1.406   .     A
C156   C157    1.397   .     A
C156   H168    1.084   .     S
C157   H169    1.083   .     S
C170   C171    1.410   .     A
C170   C175    1.402   .     A
C170   C176    1.485   .     S
C171   C172    1.402   .     A
C171   H188    1.082   1_545 S
C172   C173    1.402   .     A
C172   H189    1.083   .     S
C173   C174    1.406   .     A
C174   C175    1.390   .     A
C174   H190    1.083   .     S
C175   H191    1.082   .     S
C176   C177    1.407   .     A
C176   C181    1.405   1_545 A
C177   C178    1.396   .     A
C177   H192    1.083   .     S
C178   H193    1.083   .     S
C178   C179    1.404   1_545 A
C179   C180    1.404   .     A
C179   C182    1.481   .     S
C179   C178    1.404   1_565 A
C180   C181    1.396   .     A
C180   H194    1.082   .     S
C181   H195    1.082   .     S
C181   C176    1.405   1_565 A
C182   C183    1.409   .     A
C182   C187    1.403   .     A
C183   H196    1.083   .     S
C183   C184    1.400   1_556 A
C184   C185    1.400   .     A
C184   H197    1.083   .     S
C184   C183    1.400   1_554 A
C185   C186    1.402   .     A
C186   H198    1.084   .     S
C186   C187    1.390   1_554 A
C187   C186    1.390   1_556 A
C187   H199    1.083   1_565 S
H188   C171    1.082   1_565 S
H199   C187    1.083   1_545 S
C200   C201    1.404   .     A
C200   C205    1.407   .     A
C200   C206    1.480   .     S
C201   C202    1.398   .     A
C201   H218    1.082   .     S
C202   C203    1.404   .     A
C202   H219    1.083   .     S
C203   C204    1.400   .     A
C204   C205    1.391   .     A
C204   H220    1.084   .     S
C205   H221    1.083   .     S
C206   C207    1.401   .     A
C206   C211    1.407   1_545 A
C207   H222    1.083   .     S
C207   C208    1.388   1_545 A
C208   C209    1.406   .     A
C208   C207    1.388   1_565 A
C208   H223    1.082   1_565 S
C209   C210    1.407   .     A
C209   C212    1.485   .     S
C210   C211    1.402   .     A
C210   H224    1.083   .     S
C211   H225    1.083   .     S
C211   C206    1.407   1_565 A
C212   C213    1.409   .     A
C212   C217    1.406   .     A
C213   C214    1.401   .     A
C213   H226    1.083   .     S
C214   C215    1.403   .     A
C214   H227    1.083   .     S
C215   C216    1.399   .     A
C216   C217    1.390   .     A
C216   H228    1.084   .     S
C217   H229    1.083   .     S
H223   C208    1.082   1_545 S
C230   C231    1.408   .     A
C230   C235    1.404   .     A
C230   C236    1.483   .     S
C231   C232    1.404   .     A
C231   H248    1.083   .     S
C232   C233    1.402   .     A
C232   H249    1.083   .     S
C233   C234    1.403   .     A
C234   C235    1.397   .     A
C234   H250    1.084   .     S
C235   H251    1.084   .     S
C236   C237    1.405   .     A
C236   C241    1.405   .     A
C237   C238    1.396   .     A
C237   H252    1.083   .     S
C238   C239    1.404   .     A
C238   H253    1.083   .     S
C239   C240    1.407   .     A
C239   C242    1.484   .     S
C240   C241    1.403   .     A
C240   H254    1.083   .     S
C241   H255    1.083   .     S
C242   C243    1.405   .     A
C242   C247    1.403   .     A
C243   C244    1.403   .     A
C243   H256    1.083   .     S
C244   C245    1.407   .     A
C244   H257    1.083   .     S
C245   C246    1.405   .     A
C246   C247    1.395   .     A
C246   H258    1.078   .     S
C247   H259    1.083   .     S
C260   C261    1.406   .     A
C260   C265    1.404   .     A
C260   C266    1.487   .     S
C261   H278    1.083   .     S
C261   C262    1.407   1_554 A
C262   C263    1.409   .     A
C262   H279    1.083   .     S
C262   C261    1.407   1_556 A
C263   C264    1.405   .     A
C264   H280    1.083   .     S
C264   C265    1.394   1_556 A
C265   H281    1.084   .     S
C265   C264    1.394   1_554 A
C266   C267    1.404   .     A
C266   C271    1.407   .     A
C267   C268    1.393   .     A
C267   H282    1.083   .     S
C268   C269    1.405   .     A
C268   H283    1.083   .     S
C269   C270    1.410   .     A
C269   C272    1.493   .     S
C270   C271    1.407   .     A
C270   H284    1.083   .     S
C271   H285    1.083   .     S
C272   C273    1.408   .     A
C272   C277    1.405   .     A
C273   C274    1.408   .     A
C273   H286    1.082   .     S
C274   C275    1.409   .     A
C274   H287    1.083   .     S
C275   C276    1.405   .     A
C276   C277    1.393   .     A
C276   H288    1.083   .     S
C277   H289    1.082   .     S
C290   C291    1.404   .     A
C290   C295    1.405   .     A
C290   C296    1.483   .     S
C291   C292    1.402   .     A
C291   H308    1.084   .     S
C292   C293    1.408   .     A
C292   H309    1.083   .     S
C293   C294    1.406   .     A
C294   C295    1.399   .     A
C294   H310    1.083   .     S
C295   H311    1.083   .     S
C296   C297    1.403   .     A
C296   C301    1.404   .     A
C297   C298    1.397   .     A
C297   H312    1.083   .     S
C298   C299    1.408   .     A
C298   H313    1.083   .     S
C299   C300    1.408   .     A
C299   C302    1.492   .     S
C300   C301    1.402   .     A
C300   H314    1.083   .     S
C301   H315    1.083   .     S
C302   C303    1.412   .     A
C302   C307    1.405   1_455 A
C303   H316    1.082   .     S
C303   C304    1.405   1_455 A
C304   C305    1.403   .     A
C304   H317    1.083   .     S
C304   C303    1.405   1_655 A
C305   C306    1.401   .     A
C306   C307    1.390   .     A
C306   H318    1.084   .     S
C307   H319    1.081   .     S
C307   C302    1.405   1_655 A
C320   C321    1.402   .     A
C320   C325    1.410   .     A
C320   C326    1.483   .     S
C321   H338    1.083   .     S
C321   C322    1.392   1_565 A
C322   C323    1.405   .     A
C322   H339    1.084   .     S
C322   C321    1.392   1_545 A
C323   C324    1.403   .     A
C324   H340    1.084   .     S
C324   C325    1.405   1_545 A
C325   H341    1.083   .     S
C325   C324    1.405   1_565 A
C326   C327    1.402   .     A
C326   C331    1.409   .     A
C327   H342    1.083   .     S
C327   C328    1.398   1_655 D
C328   H343    1.083   .     S
C328   C327    1.398   1_455 D
C328   C329    1.408   1_455 S
C329   C330    1.400   .     A
C329   C328    1.408   1_655 S
C329   C332    1.480   1_655 S
C330   C331    1.398   .     A
C330   H344    1.083   .     S
C331   H345    1.083   .     S
C332   C333    1.409   .     A
C332   C337    1.400   .     A
C332   C329    1.480   1_455 S
C333   C334    1.406   .     A
C333   H346    1.083   .     S
C334   C335    1.406   .     A
C334   H347    1.084   .     S
C335   C336    1.405   .     A
C336   C337    1.390   .     A
C336   H348    1.084   .     S
C337   H349    1.083   .     S
C350   C355    1.405   .     A
C350   C351    1.404   1_455 A
C350   C356    1.480   1_455 S
C351   H368    1.083   .     S
C351   C350    1.404   1_655 A
C351   C352    1.396   1_655 A
C352   C353    1.403   .     A
C352   C351    1.396   1_455 A
C352   H369    1.083   1_455 S
C353   C354    1.403   .     A
C354   C355    1.397   .     A
C354   H370    1.079   .     S
C355   H371    1.083   .     S
C356   C361    1.404   .     A
C356   C350    1.480   1_655 S
C356   C357    1.405   1_655 A
C357   C358    1.397   .     A
C357   H372    1.083   .     S
C357   C356    1.405   1_455 A
C358   H373    1.083   .     S
C358   C359    1.405   1_455 A
C359   C360    1.405   .     A
C359   C362    1.481   .     S
C359   C358    1.405   1_655 A
C360   C361    1.395   .     A
C360   H374    1.083   .     S
C361   H375    1.083   .     S
C362   C363    1.406   .     A
C362   C367    1.404   .     A
C363   C364    1.396   .     A
C363   H376    1.083   .     S
C364   C365    1.403   .     A
C364   H377    1.083   .     S
C365   C366    1.405   .     A
C366   C367    1.395   .     A
C366   H378    1.083   .     S
C367   H379    1.083   .     S
H369   C352    1.083   1_655 S
C380   C381    1.404   .     A
C380   C385    1.402   .     A
C380   C386    1.476   .     S
C381   C382    1.400   .     A
C381   H398    1.083   1_554 S
C382   C383    1.404   .     A
C382   H399    1.083   .     S
C383   C384    1.405   .     A
C384   C385    1.396   .     A
C384   H400    1.084   .     S
C385   H401    1.083   .     S
C386   C387    1.400   .     A
C386   C391    1.403   1_554 A
C387   H402    1.083   .     S
C387   C388    1.398   1_554 A
C388   C389    1.411   .     A
C388   C387    1.398   1_556 A
C388   H403    1.082   1_556 S
C389   C390    1.408   .     A
C389   C392    1.492   .     S
C390   C391    1.397   .     A
C390   H404    1.082   .     S
C391   H405    1.083   .     S
C391   C386    1.403   1_556 A
C392   C393    1.409   .     A
C392   C397    1.409   .     A
C393   H406    1.082   .     S
C393   C394    1.397   1_655 A
C394   C395    1.400   .     A
C394   H407    1.084   .     S
C394   C393    1.397   1_455 A
C395   C396    1.400   .     A
C396   H408    1.083   .     S
C396   C397    1.397   1_455 A
C397   H409    1.083   .     S
C397   C396    1.397   1_655 A
H398   C381    1.083   1_556 S
H403   C388    1.082   1_554 S
C410   C411    1.407   .     A
C410   C415    1.402   .     A
C410   C416    1.484   .     S
C411   C412    1.405   .     A
C411   H428    1.082   .     S
C412   C413    1.406   .     A
C412   H429    1.083   .     S
C413   C414    1.407   .     A
C414   C415    1.391   .     A
C414   H430    1.082   .     S
C415   H431    1.083   .     S
C416   C417    1.405   .     A
C416   C421    1.404   .     A
C417   C418    1.394   .     A
C417   H432    1.084   .     S
C418   C419    1.405   .     A
C418   H433    1.083   .     S
C419   C420    1.409   .     A
C419   C422    1.490   .     S
C420   C421    1.404   .     A
C420   H434    1.083   .     S
C421   H435    1.083   .     S
C422   C423    1.407   .     A
C422   C427    1.407   .     A
C423   C424    1.402   .     A
C423   H436    1.082   .     S
C424   C425    1.404   .     A
C424   H437    1.083   .     S
C425   C426    1.404   .     A
C426   C427    1.397   .     A
C426   H438    1.083   .     S
C427   H439    1.083   .     S
