data_lcy+N139+E161
_audit_creation_date              2025-01-21
_audit_creation_method            'Materials Studio'
_symmetry_space_group_name_H-M    'P1'
_symmetry_Int_Tables_number       1
_symmetry_cell_setting            triclinic
loop_
_symmetry_equiv_pos_as_xyz
  x,y,z
_cell_length_a                    40.3455
_cell_length_b                    38.4805
_cell_length_c                    38.6639
_cell_angle_alpha                 88.0722
_cell_angle_beta                  89.3832
_cell_angle_gamma                 88.7587
loop_
_atom_site_label
_atom_site_type_symbol
_atom_site_fract_x
_atom_site_fract_y
_atom_site_fract_z
_atom_site_U_iso_or_equiv
_atom_site_adp_type
_atom_site_occupancy
C0     C     0.06155   0.56826   0.84521   0.00000  Uiso   1.00
Sm1    Sm    0.12720   0.64341   0.88799   0.00000  Uiso   1.00
Sm2    Sm    0.12102   0.59423   0.85860   0.00000  Uiso   1.00
C3     C     0.15532   0.58051   0.92869   0.00000  Uiso   1.00
C4     C     0.16550   0.58212   0.80794   0.00000  Uiso   1.00
O5     O     0.18071   0.65726   0.87714   0.00000  Uiso   1.00
O6     O     0.15500   0.68651   0.91376   0.00000  Uiso   1.00
O7     O     0.09048   0.62746   0.82025   0.00000  Uiso   1.00
O8     O     0.11117   0.67509   0.84139   0.00000  Uiso   1.00
O9     O     0.07347   0.63605   0.90333   0.00000  Uiso   1.00
O10    O     0.09677   0.67949   0.92225   0.00000  Uiso   1.00
O11    O     0.07727   0.56176   0.87305   0.00000  Uiso   1.00
O12    O     0.07575   0.59041   0.82484   0.00000  Uiso   1.00
O13    O     0.14256   0.61033   0.93358   0.00000  Uiso   1.00
O14    O     0.15438   0.56804   0.89868   0.00000  Uiso   1.00
O15    O     0.16369   0.61042   0.82378   0.00000  Uiso   1.00
O16    O     0.14442   0.56016   0.81851   0.00000  Uiso   1.00
C17    C     0.18252   0.68054   0.89903   0.00000  Uiso   1.00
C18    C     0.09385   0.66052   0.81893   0.00000  Uiso   1.00
C19    C     0.07027   0.66270   0.92113   0.00000  Uiso   1.00
C20    C     0.60561   0.80526   0.16205   0.00000  Uiso   1.00
Sm21   Sm    0.64620   0.90628   0.10453   0.00000  Uiso   1.00
Sm22   Sm    0.60870   0.86287   0.11862   0.00000  Uiso   1.00
C23    C     0.68010   0.83548   0.09947   0.00000  Uiso   1.00
C24    C     0.57000   0.82156   0.08180   0.00000  Uiso   1.00
O25    O     0.64347   0.93414   0.05304   0.00000  Uiso   1.00
O26    O     0.68358   0.89743   0.06161   0.00000  Uiso   1.00
O27    O     0.60403   0.89411   0.16740   0.00000  Uiso   1.00
O28    O     0.60892   0.93893   0.13180   0.00000  Uiso   1.00
O29    O     0.66833   0.88811   0.15535   0.00000  Uiso   1.00
O30    O     0.68620   0.93479   0.13214   0.00000  Uiso   1.00
O31    O     0.63242   0.81733   0.15005   0.00000  Uiso   1.00
O32    O     0.58066   0.82240   0.15113   0.00000  Uiso   1.00
O33    O     0.68129   0.86550   0.08449   0.00000  Uiso   1.00
O34    O     0.65586   0.82813   0.12010   0.00000  Uiso   1.00
O35    O     0.59768   0.83265   0.07065   0.00000  Uiso   1.00
O36    O     0.56357   0.83014   0.11259   0.00000  Uiso   1.00
C37    C     0.66947   0.91966   0.04076   0.00000  Uiso   1.00
C38    C     0.59960   0.92655   0.16094   0.00000  Uiso   1.00
C39    C     0.68712   0.91371   0.15815   0.00000  Uiso   1.00
C40    C     0.85679   0.06614   0.55348   0.00000  Uiso   1.00
Sm41   Sm    0.93059   0.13029   0.63760   0.00000  Uiso   1.00
Sm42   Sm    0.88948   0.11966   0.57715   0.00000  Uiso   1.00
C43    C     0.94209   0.17162   0.56594   0.00000  Uiso   1.00
C44    C     0.84881   0.17579   0.56845   0.00000  Uiso   1.00
O45    O     0.89198   0.16091   0.66866   0.00000  Uiso   1.00
O46    O     0.94250   0.17148   0.67541   0.00000  Uiso   1.00
O47    O     0.85271   0.09763   0.61521   0.00000  Uiso   1.00
O48    O     0.87522   0.13324   0.65223   0.00000  Uiso   1.00
O49    O     0.92162   0.07818   0.61593   0.00000  Uiso   1.00
O50    O     0.92836   0.08231   0.67108   0.00000  Uiso   1.00
O51    O     0.88587   0.07385   0.54325   0.00000  Uiso   1.00
O52    O     0.84587   0.08386   0.57878   0.00000  Uiso   1.00
O53    O     0.93477   0.17511   0.59781   0.00000  Uiso   1.00
O54    O     0.93078   0.14631   0.55008   0.00000  Uiso   1.00
O55    O     0.86665   0.17058   0.59475   0.00000  Uiso   1.00
O56    O     0.85319   0.15309   0.54595   0.00000  Uiso   1.00
C57    C     0.91300   0.17989   0.68274   0.00000  Uiso   1.00
C58    C     0.85382   0.11015   0.64532   0.00000  Uiso   1.00
C59    C     0.92379   0.06252   0.64565   0.00000  Uiso   1.00
C60    C     0.35122   0.39182   0.31944   0.00000  Uiso   1.00
Sm61   Sm    0.39764   0.32807   0.43001   0.00000  Uiso   1.00
Sm62   Sm    0.39092   0.37354   0.37296   0.00000  Uiso   1.00
C63    C     0.43757   0.31624   0.35921   0.00000  Uiso   1.00
C64    C     0.43885   0.41918   0.35669   0.00000  Uiso   1.00
O65    O     0.42830   0.36371   0.46219   0.00000  Uiso   1.00
O66    O     0.43446   0.30944   0.47023   0.00000  Uiso   1.00
O67    O     0.36943   0.41241   0.40800   0.00000  Uiso   1.00
O68    O     0.40401   0.38521   0.44459   0.00000  Uiso   1.00
O69    O     0.34885   0.34382   0.40731   0.00000  Uiso   1.00
O70    O     0.35195   0.33341   0.46234   0.00000  Uiso   1.00
O71    O     0.34304   0.36981   0.34289   0.00000  Uiso   1.00
O72    O     0.37921   0.40509   0.32430   0.00000  Uiso   1.00
O73    O     0.44050   0.32115   0.39154   0.00000  Uiso   1.00
O74    O     0.41518   0.33270   0.34234   0.00000  Uiso   1.00
O75    O     0.44083   0.39765   0.38216   0.00000  Uiso   1.00
O76    O     0.41280   0.41607   0.33910   0.00000  Uiso   1.00
C77    C     0.44414   0.33912   0.47784   0.00000  Uiso   1.00
C78    C     0.38317   0.41025   0.43741   0.00000  Uiso   1.00
C79    C     0.33360   0.34162   0.43641   0.00000  Uiso   1.00
H80    H     0.23379   0.69651   0.85630   0.00000  Uiso   1.00
C81    C     0.54631   0.80218   0.06136   0.00000  Uiso   1.00
C82    C     0.51874   0.78735   0.07807   0.00000  Uiso   1.00
C83    C     0.49280   0.77412   0.05903   0.00000  Uiso   1.00
C84    C     0.49446   0.77550   1.02254   0.00000  Uiso   1.00
C85    C     0.52308   0.78838   1.00559   0.00000  Uiso   1.00
C86    C     0.54889   0.80157   1.02518   0.00000  Uiso   1.00
C87    C     0.46285   0.75972   0.07760   0.00000  Uiso   1.00
C88    C     0.52561   0.78899   0.96676   0.00000  Uiso   1.00
C89    C     0.44252   0.79321  -0.00405   0.00000  Uiso   1.00
C90    C     0.41182   0.78546   0.98159   0.00000  Uiso   1.00
C91    C     0.40523   0.75075   0.97402   0.00000  Uiso   1.00
C92    C     0.42962   0.72456   0.98022   0.00000  Uiso   1.00
C93    C     0.45995   0.73354   0.99487   0.00000  Uiso   1.00
C94    C     0.38727   0.81135  -0.02441   0.00000  Uiso   1.00
C95    C     0.35639   0.80285   0.96267   0.00000  Uiso   1.00
C96    C     0.34934   0.76825   0.95544   0.00000  Uiso   1.00
C97    C     0.37391   0.74213   0.96096   0.00000  Uiso   1.00
C98    C     0.36702   0.70733   0.95404   0.00000  Uiso   1.00
C99    C     0.39179   0.68152   0.95960   0.00000  Uiso   1.00
C100   C     0.42272   0.69003   0.97254   0.00000  Uiso   1.00
C101   C     0.31807   0.75896   0.94341   0.00000  Uiso   1.00
C102   C     0.33526   0.69922   0.94235   0.00000  Uiso   1.00
C103   C     0.27840   0.71574   0.92765   0.00000  Uiso   1.00
C104   C     0.25986   0.71413   0.99110   0.00000  Uiso   1.00
C105   C     0.22127   0.70188   0.94303   0.00000  Uiso   1.00
C106   C     0.29704   0.71734   0.86484   0.00000  Uiso   1.00
C107   C     0.23916   0.70106   0.88316   0.00000  Uiso   1.00
C108   C     0.27101   0.71134   0.89244   0.00000  Uiso   1.00
C109   C     0.25324   0.71096   0.95307   0.00000  Uiso   1.00
C110   C     0.21421   0.69622   0.90828   0.00000  Uiso   1.00
H111   H     0.31849   0.69927   0.86931   0.00000  Uiso   1.00
N112   N     0.46552   0.76727   1.00306   0.00000  Uiso   1.00
N113   N     0.31145   0.72488   0.93758   0.00000  Uiso   1.00
H114   H     0.30560   0.74454   0.86553   0.00000  Uiso   1.00
H115   H     0.51686   0.78722   0.10608   0.00000  Uiso   1.00
H116   H     0.57023   0.81284   1.01220   0.00000  Uiso   1.00
H117   H     0.46446   0.76225   0.10606   0.00000  Uiso   1.00
H118   H     0.44010   0.77393   0.06866   0.00000  Uiso   1.00
H119   H     0.46072   0.73173   0.07208   0.00000  Uiso   1.00
H120   H     0.50471   0.80463   0.95545   0.00000  Uiso   1.00
H121   H     0.54917   0.80052   0.95733   0.00000  Uiso   1.00
H122   H     0.52457   0.76201   0.95759   0.00000  Uiso   1.00
O123   O     0.48360   0.70823   1.00210   0.00000  Uiso   1.00
O124   O     0.44901   0.82682   0.00418   0.00000  Uiso   1.00
H125   H     0.39166   0.83822  -0.01868   0.00000  Uiso   1.00
H126   H     0.44105   0.66941   0.97690   0.00000  Uiso   1.00
H127   H     0.33792   0.82342  -0.04118   0.00000  Uiso   1.00
H128   H     0.25384   0.68932   1.00505   0.00000  Uiso   1.00
H129   H     0.28608   0.71977   0.99656   0.00000  Uiso   1.00
H130   H     0.20234   0.69736   0.96269   0.00000  Uiso   1.00
H131   H     0.38725   0.65458   0.95434   0.00000  Uiso   1.00
H132   H     0.28733   0.71304   0.83858   0.00000  Uiso   1.00
O133   O     0.32784   0.66529   0.93645   0.00000  Uiso   1.00
O134   O     0.29376   0.78407   0.93829   0.00000  Uiso   1.00
H135   H     0.24406   0.73539   0.00152   0.00000  Uiso   1.00
H136   H     0.55221   0.97345   0.14677   0.00000  Uiso   1.00
C137   C     0.45918   0.29016   0.34231   0.00000  Uiso   1.00
C138   C     0.48320   0.27118   0.36159   0.00000  Uiso   1.00
C139   C     0.49930   0.24195   0.34794   0.00000  Uiso   1.00
C140   C     0.49120   0.23151   0.31452   0.00000  Uiso   1.00
C141   C     0.46867   0.25167   0.29421   0.00000  Uiso   1.00
C142   C     0.45298   0.28093   0.30822   0.00000  Uiso   1.00
C143   C     0.52404   0.22112   0.36946   0.00000  Uiso   1.00
C144   C     0.46029   0.24115   0.25827   0.00000  Uiso   1.00
C145   C     0.48453   0.16965   0.31016   0.00000  Uiso   1.00
C146   C     0.49535   0.13681   0.29950   0.00000  Uiso   1.00
C147   C     0.52550   0.13391   0.28105   0.00000  Uiso   1.00
C148   C     0.54429   0.16375   0.27357   0.00000  Uiso   1.00
C149   C     0.53241   0.19612   0.28478   0.00000  Uiso   1.00
C150   C     0.47672   0.10697   0.30673   0.00000  Uiso   1.00
C151   C     0.48778   0.07458   0.29560   0.00000  Uiso   1.00
C152   C     0.51766   0.07138   0.27691   0.00000  Uiso   1.00
C153   C     0.53668   0.10113   0.26974   0.00000  Uiso   1.00
C154   C     0.56654   0.09827   0.25078   0.00000  Uiso   1.00
C155   C     0.58527   0.12810   0.24371   0.00000  Uiso   1.00
C156   C     0.57428   0.16050   0.25503   0.00000  Uiso   1.00
C157   C     0.52858   0.03934   0.26419   0.00000  Uiso   1.00
C158   C     0.57636   0.06569   0.23845   0.00000  Uiso   1.00
C159   C     0.56430   0.00615   0.22630   0.00000  Uiso   1.00
C160   C     0.60225   0.98315   0.27475   0.00000  Uiso   1.00
C161   C     0.59644   0.95247   0.21920   0.00000  Uiso   1.00
C162   C     0.52683   0.02979   0.17829   0.00000  Uiso   1.00
C163   C     0.56117   0.97505   0.17300   0.00000  Uiso   1.00
C164   C     0.55084   0.00281   0.19309   0.00000  Uiso   1.00
C165   C     0.58683   0.98050   0.23971   0.00000  Uiso   1.00
C166   C     0.58432   0.95028   0.18559   0.00000  Uiso   1.00
H167   H     0.53874   0.05554   0.17646   0.00000  Uiso   1.00
N168   N     0.50306   0.19840   0.30272   0.00000  Uiso   1.00
N169   N     0.55696   0.03732   0.24461   0.00000  Uiso   1.00
H170   H     0.50451   0.03158   0.19521   0.00000  Uiso   1.00
H171   H     0.48835   0.27816   0.38789   0.00000  Uiso   1.00
H172   H     0.43460   0.29546   0.29309   0.00000  Uiso   1.00
H173   H     0.52799   0.23281   0.39493   0.00000  Uiso   1.00
H174   H     0.51519   0.19422   0.37413   0.00000  Uiso   1.00
H175   H     0.54825   0.22001   0.35556   0.00000  Uiso   1.00
H176   H     0.44889   0.21512   0.25933   0.00000  Uiso   1.00
H177   H     0.44255   0.25988   0.24558   0.00000  Uiso   1.00
H178   H     0.48321   0.24009   0.24217   0.00000  Uiso   1.00
O179   O     0.55019   0.22555   0.27764   0.00000  Uiso   1.00
O180   O     0.45514   0.17298   0.32811   0.00000  Uiso   1.00
H181   H     0.45344   0.10856   0.32084   0.00000  Uiso   1.00
H182   H     0.58925   0.18298   0.24904   0.00000  Uiso   1.00
H183   H     0.47266   0.05215   0.30133   0.00000  Uiso   1.00
H184   H     0.62953   0.98535   0.27170   0.00000  Uiso   1.00
H185   H     0.59277   0.00599   0.28886   0.00000  Uiso   1.00
H186   H     0.61498   0.93372   0.22860   0.00000  Uiso   1.00
H187   H     0.60830   0.12657   0.22914   0.00000  Uiso   1.00
H188   H     0.51863   0.02332   0.15200   0.00000  Uiso   1.00
O189   O     0.60466   0.06263   0.21864   0.00000  Uiso   1.00
O190   O     0.50992   0.01025   0.26997   0.00000  Uiso   1.00
H191   H     0.59684   0.95942   0.29075   0.00000  Uiso   1.00
H192   H     0.49250   0.38443   0.46547   0.00000  Uiso   1.00
C193   C     0.82328   0.20339   0.56561   0.00000  Uiso   1.00
C194   C     0.80278   0.21005   0.59416   0.00000  Uiso   1.00
C195   C     0.77392   0.23072   0.59029   0.00000  Uiso   1.00
C196   C     0.76626   0.24596   0.55746   0.00000  Uiso   1.00
C197   C     0.78879   0.24199   0.52951   0.00000  Uiso   1.00
C198   C     0.81674   0.22003   0.53366   0.00000  Uiso   1.00
C199   C     0.75062   0.23472   0.62067   0.00000  Uiso   1.00
C200   C     0.78266   0.26032   0.49510   0.00000  Uiso   1.00
C201   C     0.72516   0.29295   0.56347   0.00000  Uiso   1.00
C202   C     0.69255   0.30621   0.55981   0.00000  Uiso   1.00
C203   C     0.66946   0.28693   0.54176   0.00000  Uiso   1.00
C204   C     0.67900   0.25461   0.52836   0.00000  Uiso   1.00
C205   C     0.71122   0.24162   0.53427   0.00000  Uiso   1.00
C206   C     0.68239   0.33798   0.57389   0.00000  Uiso   1.00
C207   C     0.64966   0.35024   0.57037   0.00000  Uiso   1.00
C208   C     0.62655   0.33135   0.55209   0.00000  Uiso   1.00
C209   C     0.63669   0.29984   0.53729   0.00000  Uiso   1.00
C210   C     0.61409   0.28107   0.51813   0.00000  Uiso   1.00
C211   C     0.62412   0.24927   0.50414   0.00000  Uiso   1.00
C212   C     0.65610   0.23592   0.50963   0.00000  Uiso   1.00
C213   C     0.59343   0.34297   0.54828   0.00000  Uiso   1.00
C214   C     0.58185   0.29452   0.51361   0.00000  Uiso   1.00
C215   C     0.53813   0.33652   0.52451   0.00000  Uiso   1.00
C216   C     0.51847   0.29029   0.56863   0.00000  Uiso   1.00
C217   C     0.48023   0.32032   0.52654   0.00000  Uiso   1.00
C218   C     0.55755   0.38313   0.48115   0.00000  Uiso   1.00
C219   C     0.49793   0.36643   0.48694   0.00000  Uiso   1.00
C220   C     0.53057   0.36242   0.49876   0.00000  Uiso   1.00
C221   C     0.51220   0.31709   0.54006   0.00000  Uiso   1.00
C222   C     0.47340   0.34383   0.49909   0.00000  Uiso   1.00
H223   H     0.57583   0.36531   0.46883   0.00000  Uiso   1.00
N224   N     0.73368   0.26089   0.55130   0.00000  Uiso   1.00
N225   N     0.57195   0.32464   0.52905   0.00000  Uiso   1.00
H226   H     0.57031   0.39887   0.50026   0.00000  Uiso   1.00
H227   H     0.80802   0.19709   0.61889   0.00000  Uiso   1.00
H228   H     0.83305   0.21521   0.51181   0.00000  Uiso   1.00
H229   H     0.75909   0.21905   0.64368   0.00000  Uiso   1.00
H230   H     0.74920   0.26235   0.62795   0.00000  Uiso   1.00
H231   H     0.72548   0.22609   0.61393   0.00000  Uiso   1.00
H232   H     0.77995   0.28873   0.49880   0.00000  Uiso   1.00
H233   H     0.80355   0.25596   0.47669   0.00000  Uiso   1.00
H234   H     0.75979   0.25080   0.48328   0.00000  Uiso   1.00
O235   O     0.72018   0.20919   0.52312   0.00000  Uiso   1.00
O236   O     0.74845   0.31210   0.57951   0.00000  Uiso   1.00
H237   H     0.69957   0.35324   0.58806   0.00000  Uiso   1.00
H238   H     0.66283   0.21103   0.49899   0.00000  Uiso   1.00
H239   H     0.64259   0.37465   0.58180   0.00000  Uiso   1.00
H240   H     0.51517   0.26387   0.55867   0.00000  Uiso   1.00
H241   H     0.54378   0.29183   0.57935   0.00000  Uiso   1.00
H242   H     0.46113   0.30294   0.53603   0.00000  Uiso   1.00
H243   H     0.60718   0.23436   0.48929   0.00000  Uiso   1.00
H244   H     0.54749   0.40123   0.46067   0.00000  Uiso   1.00
O245   O     0.55998   0.27719   0.49374   0.00000  Uiso   1.00
O246   O     0.58250   0.37251   0.56418   0.00000  Uiso   1.00
H247   H     0.50050   0.29443   0.59015   0.00000  Uiso   1.00
H248   H     0.63340   0.94037   0.98571   0.00000  Uiso   1.00
C249   C     0.83272   0.09636   0.67365   0.00000  Uiso   1.00
C250   C     0.84554   0.09478   0.70724   0.00000  Uiso   1.00
C251   C     0.82844   0.07817   0.73447   0.00000  Uiso   1.00
C252   C     0.79721   0.06386   0.72842   0.00000  Uiso   1.00
C253   C     0.78369   0.06612   0.69478   0.00000  Uiso   1.00
C254   C     0.80196   0.08172   0.66745   0.00000  Uiso   1.00
C255   C     0.84413   0.07488   0.76964   0.00000  Uiso   1.00
C256   C     0.74990   0.05229   0.68805   0.00000  Uiso   1.00
C257   C     0.76393   0.06743   0.78074   0.00000  Uiso   1.00
C258   C     0.75115   0.05231   0.81148   0.00000  Uiso   1.00
C259   C     0.75314   1.01592   0.81656   0.00000  Uiso   1.00
C260   C     0.76774   0.99526   0.79088   0.00000  Uiso   1.00
C261   C     0.78117   1.01167   0.76100   0.00000  Uiso   1.00
C262   C     0.73730   0.07276   0.83759   0.00000  Uiso   1.00
C263   C     0.72599   0.05731   0.86858   0.00000  Uiso   1.00
C264   C     0.72775   1.02102   0.87388   0.00000  Uiso   1.00
C265   C     0.74095   1.00020   0.84759   0.00000  Uiso   1.00
C266   C     0.74231   0.96375   0.85245   0.00000  Uiso   1.00
C267   C     0.75636   0.94332   0.82639   0.00000  Uiso   1.00
C268   C     0.76924   0.95893   0.79610   0.00000  Uiso   1.00
C269   C     0.71690   1.00495   0.90499   0.00000  Uiso   1.00
C270   C     0.72976   0.94875   0.88344   0.00000  Uiso   1.00
C271   C     0.70582   0.95369   0.94114   0.00000  Uiso   1.00
C272   C     0.76530   0.94173   0.96156   0.00000  Uiso   1.00
C273   C     0.71605   0.92775  -0.00142   0.00000  Uiso   1.00
C274   C     0.64676   0.96416   0.92055   0.00000  Uiso   1.00
C275   C     0.65981   0.94038   0.98021   0.00000  Uiso   1.00
C276   C     0.67134   0.95243   0.94778   0.00000  Uiso   1.00
C277   C     0.72829   0.94086   0.96673   0.00000  Uiso   1.00
C278   C     0.68200   0.92848   0.00579   0.00000  Uiso   1.00
H279   H     0.65167   0.94996   0.89646   0.00000  Uiso   1.00
N280   N     0.77949   0.04717   0.75674   0.00000  Uiso   1.00
N281   N     0.71779   0.96942   0.90913   0.00000  Uiso   1.00
H282   H     0.64878   0.99248   0.91494   0.00000  Uiso   1.00
H283   H     0.86973   0.10527   0.71200   0.00000  Uiso   1.00
H284   H     0.79227   0.08253   0.64139   0.00000  Uiso   1.00
H285   H     0.86911   0.08644   0.76967   0.00000  Uiso   1.00
H286   H     0.82853   0.08852   0.78893   0.00000  Uiso   1.00
H287   H     0.84681   1.04699   0.77764   0.00000  Uiso   1.00
H288   H     0.73136   0.06500   0.70519   0.00000  Uiso   1.00
H289   H     0.74233   0.05754   0.66080   0.00000  Uiso   1.00
H290   H     0.74987   0.02377   0.69326   0.00000  Uiso   1.00
O291   O     0.79708   0.99212   0.73656   0.00000  Uiso   1.00
O292   O     0.76213   0.10286   0.77536   0.00000  Uiso   1.00
H293   H     0.73559   0.10081   0.83440   0.00000  Uiso   1.00
H294   H     0.78046   0.94244   0.77686   0.00000  Uiso   1.00
H295   H     0.71584   0.07391   0.88832   0.00000  Uiso   1.00
H296   H     0.77567   0.91477   0.96263   0.00000  Uiso   1.00
H297   H     0.77275   0.95425   0.93656   0.00000  Uiso   1.00
H298   H     0.73327   0.91851   0.01838   0.00000  Uiso   1.00
H299   H     0.75791   0.91526   0.82955   0.00000  Uiso   1.00
H300   H     0.62087   0.95907   0.92897   0.00000  Uiso   1.00
O301   O     0.72994   0.91324   0.88825   0.00000  Uiso   1.00
O302   O     0.70539   1.02501   0.93147   0.00000  Uiso   1.00
H303   H     0.77648   0.95655   0.98246   0.00000  Uiso   1.00
H304   H     0.70316   0.86550   0.20755   0.00000  Uiso   1.00
C305   C     0.83591   0.04360   0.53354   0.00000  Uiso   1.00
C306   C     0.81487   0.05967   0.50908   0.00000  Uiso   1.00
C307   C     0.80091   0.04055   0.48296   0.00000  Uiso   1.00
C308   C     0.80709   0.00430   0.48212   0.00000  Uiso   1.00
C309   C     0.82605   0.98753   0.50865   0.00000  Uiso   1.00
C310   C     0.84089   0.00751   0.53388   0.00000  Uiso   1.00
C311   C     0.78137   0.05931   0.45480   0.00000  Uiso   1.00
C312   C     0.83112   0.94868   0.50957   0.00000  Uiso   1.00
C313   C     0.81996   0.97933   0.42668   0.00000  Uiso   1.00
C314   C     0.80997   0.96701   0.39468   0.00000  Uiso   1.00
C315   C     0.77604   0.96173   0.38914   0.00000  Uiso   1.00
C316   C     0.75297   0.96690   0.41618   0.00000  Uiso   1.00
C317   C     0.76429   0.97823   0.44814   0.00000  Uiso   1.00
C318   C     0.83287   0.96123   0.36772   0.00000  Uiso   1.00
C319   C     0.82212   0.95117   0.33539   0.00000  Uiso   1.00
C320   C     0.78821   0.94713   0.32916   0.00000  Uiso   1.00
C321   C     0.76510   0.95218   0.35619   0.00000  Uiso   1.00
C322   C     0.73101   0.94863   0.35011   0.00000  Uiso   1.00
C323   C     0.70824   0.95312   0.37748   0.00000  Uiso   1.00
C324   C     0.71912   0.96194   0.41020   0.00000  Uiso   1.00
C325   C     0.77669   0.93895   0.29627   0.00000  Uiso   1.00
C326   C     0.72059   0.94137   0.31653   0.00000  Uiso   1.00
C327   C     0.73205   0.93076   0.25591   0.00000  Uiso   1.00
C328   C     0.73760   0.99528   0.23919   0.00000  Uiso   1.00
C329   C     0.71578   0.95243   0.19843   0.00000  Uiso   1.00
C330   C     0.72850   0.86654   0.27201   0.00000  Uiso   1.00
C331   C     0.71053   0.89139   0.21406   0.00000  Uiso   1.00
C332   C     0.72372   0.89684   0.24680   0.00000  Uiso   1.00
C333   C     0.72863   0.95862   0.23123   0.00000  Uiso   1.00
C334   C     0.70590   0.91911   0.19001   0.00000  Uiso   1.00
H335   H     0.71309   0.87055   0.29555   0.00000  Uiso   1.00
N336   N     0.79704  -0.01438   0.45230   0.00000  Uiso   1.00
N337   N     0.74339   0.93690   0.29042   0.00000  Uiso   1.00
H338   H     0.75500   0.86417   0.27940   0.00000  Uiso   1.00
H339   H     0.81110   0.08766   0.50903   0.00000  Uiso   1.00
H340   H     0.85696   0.99519   0.55316   0.00000  Uiso   1.00
H341   H     0.78068   0.08787   0.45801   0.00000  Uiso   1.00
H342   H     0.79277   0.05416   0.42917   0.00000  Uiso   1.00
H343   H     0.75544   0.05032   0.45524   0.00000  Uiso   1.00
H344   H     0.84518   0.94055   0.48630   0.00000  Uiso   1.00
H345   H     0.84508   0.93945   0.53285   0.00000  Uiso   1.00
H346   H     0.80665   0.93599   0.51018   0.00000  Uiso   1.00
O347   O     0.74211   0.98379   0.47464   0.00000  Uiso   1.00
O348   O     0.85263  -0.01303   0.43152   0.00000  Uiso   1.00
H349   H     0.85912   0.96492   0.37133   0.00000  Uiso   1.00
H350   H     0.70086   0.96566   0.43055   0.00000  Uiso   1.00
H351   H     0.84041   0.94727   0.31511   0.00000  Uiso   1.00
H352   H     0.71574   1.01291   0.23506   0.00000  Uiso   1.00
H353   H     0.74581   0.99790   0.26622   0.00000  Uiso   1.00
H354   H     0.71208   0.97401   0.18004   0.00000  Uiso   1.00
H355   H     0.68192   0.95015   0.37364   0.00000  Uiso   1.00
H356   H     0.72128   0.84169   0.26070   0.00000  Uiso   1.00
O357   O     0.68736   0.93948   0.30975   0.00000  Uiso   1.00
O358   O     0.79889   0.93394   0.26966   0.00000  Uiso   1.00
H359   H     0.75803   1.00386   0.22164   0.00000  Uiso   1.00
H360   H     0.20022   0.62926   0.76964   0.00000  Uiso   1.00
C361   C     0.37384   0.43453   0.46459   0.00000  Uiso   1.00
C362   C     0.37164   0.42162   0.49880   0.00000  Uiso   1.00
C363   C     0.35850   0.44216   0.52497   0.00000  Uiso   1.00
C364   C     0.34844   0.47692   0.51711   0.00000  Uiso   1.00
C365   C     0.35229   0.49067   0.48289   0.00000  Uiso   1.00
C366   C     0.36432   0.46906   0.45674   0.00000  Uiso   1.00
C367   C     0.35409   0.42630   0.56084   0.00000  Uiso   1.00
C368   C     0.34361   0.52812   0.47417   0.00000  Uiso   1.00
C369   C     0.34989   0.50947   0.56998   0.00000  Uiso   1.00
C370   C     0.33365   0.52262   0.59933   0.00000  Uiso   1.00
C371   C     0.29876   0.52441   0.60017   0.00000  Uiso   1.00
C372   C     0.28072   0.51362   0.57159   0.00000  Uiso   1.00
C373   C     0.29796   0.49943   0.54344   0.00000  Uiso   1.00
C374   C     0.35135   0.53285   0.62829   0.00000  Uiso   1.00
C375   C     0.33459   0.54364   0.65806   0.00000  Uiso   1.00
C376   C     0.29974   0.54511   0.65932   0.00000  Uiso   1.00
C377   C     0.28180   0.53614   0.62997   0.00000  Uiso   1.00
C378   C     0.24691   0.53806   0.63066   0.00000  Uiso   1.00
C379   C     0.22923   0.52852   0.60145   0.00000  Uiso   1.00
C380   C     0.24594   0.51613   0.57238   0.00000  Uiso   1.00
C381   C     0.28223   0.55449   0.68946   0.00000  Uiso   1.00
C382   C     0.23054   0.54863   0.66093   0.00000  Uiso   1.00
C383   C     0.23043   0.56224   0.72170   0.00000  Uiso   1.00
C384   C     0.22192   0.49695   0.73184   0.00000  Uiso   1.00
C385   C     0.19543   0.54124   0.76937   0.00000  Uiso   1.00
C386   C     0.23970   0.62695   0.71258   0.00000  Uiso   1.00
C387   C     0.20479   0.60286   0.76162   0.00000  Uiso   1.00
C388   C     0.22500   0.59668   0.73252   0.00000  Uiso   1.00
C389   C     0.21613   0.53433   0.74099   0.00000  Uiso   1.00
C390   C     0.18924   0.57536   0.77953   0.00000  Uiso   1.00
H391   H     0.23117   0.62721   0.68537   0.00000  Uiso   1.00
N392   N     0.33190   0.49689   0.54338   0.00000  Uiso   1.00
N393   N     0.24824   0.55568   0.68987   0.00000  Uiso   1.00
H394   H     0.26715   0.62476   0.71301   0.00000  Uiso   1.00
H395   H     0.37850   0.39472   0.50478   0.00000  Uiso   1.00
H396   H     0.36618   0.47902   0.43024   0.00000  Uiso   1.00
H397   H     0.36132   0.39827   0.56199   0.00000  Uiso   1.00
H398   H     0.36982   0.43973   0.57934   0.00000  Uiso   1.00
H399   H     0.32771   0.42868   0.56903   0.00000  Uiso   1.00
H400   H     0.35813   0.54511   0.49070   0.00000  Uiso   1.00
H401   H     0.34946   0.53503   0.44668   0.00000  Uiso   1.00
H402   H     0.31676   0.53321   0.47860   0.00000  Uiso   1.00
O403   O     0.28055   0.48643   0.51658   0.00000  Uiso   1.00
O404   O     0.38390   0.50757   0.56871   0.00000  Uiso   1.00
H405   H     0.37820   0.53178   0.62834   0.00000  Uiso   1.00
H406   H     0.23148   0.50817   0.55069   0.00000  Uiso   1.00
H407   H     0.34903   0.55054   0.68016   0.00000  Uiso   1.00
H408   H     0.19812   0.48563   0.72418   0.00000  Uiso   1.00
H409   H     0.24008   0.49386   0.71040   0.00000  Uiso   1.00
H410   H     0.18399   0.51977   0.78354   0.00000  Uiso   1.00
H411   H     0.20240   0.52987   0.60123   0.00000  Uiso   1.00
H412   H     0.23223   0.65215   0.72384   0.00000  Uiso   1.00
O413   O     0.19652   0.55066   0.66192   0.00000  Uiso   1.00
O414   O     0.29929   0.56138   0.71889   0.00000  Uiso   1.00
H415   H     0.23167   0.48198   0.75473   0.00000  Uiso   1.00
H416   H     0.28511   0.40619   0.31573   0.00000  Uiso   1.00
C417   C     0.17057   0.56100   0.95803   0.00000  Uiso   1.00
C418   C     0.19554   0.53577   0.95293   0.00000  Uiso   1.00
C419   C     0.21106   0.51885   0.98138   0.00000  Uiso   1.00
C420   C     0.20068   0.52670   1.01535   0.00000  Uiso   1.00
C421   C     0.17499   0.55155   1.02040   0.00000  Uiso   1.00
C422   C     0.16043   0.56862   0.99174   0.00000  Uiso   1.00
C423   C     0.23912   0.49331   0.97539   0.00000  Uiso   1.00
C424   C     0.16306   0.56011   0.05621   0.00000  Uiso   1.00
C425   C     0.23953   0.52790   0.06260   0.00000  Uiso   1.00
C426   C     0.25239   0.51409   0.09387   0.00000  Uiso   1.00
C427   C     0.24224   0.48106   0.10606   0.00000  Uiso   1.00
C428   C     0.21951   0.46241   0.08690   0.00000  Uiso   1.00
C429   C     0.20650   0.47778   0.05631   0.00000  Uiso   1.00
C430   C     0.27472   0.53270   0.11340   0.00000  Uiso   1.00
C431   C     0.28653   0.51883   0.14485   0.00000  Uiso   1.00
C432   C     0.27670   0.48584   0.15718   0.00000  Uiso   1.00
C433   C     0.25475   0.46670   0.13756   0.00000  Uiso   1.00
C434   C     0.24541   0.43323   0.14929   0.00000  Uiso   1.00
C435   C     0.22305   0.41466   0.12972   0.00000  Uiso   1.00
C436   C     0.21003   0.42921   0.09902   0.00000  Uiso   1.00
C437   C     0.28868   0.47117   0.18845   0.00000  Uiso   1.00
C438   C     0.25913   0.41903   0.18009   0.00000  Uiso   1.00
C439   C     0.29669   0.42236   0.22877   0.00000  Uiso   1.00
C440   C     0.34955   0.41333   0.19266   0.00000  Uiso   1.00
C441   C     0.34777   0.40244   0.25645   0.00000  Uiso   1.00
C442   C     0.24428   0.43116   0.26476   0.00000  Uiso   1.00
C443   C     0.29751   0.40782   0.29072   0.00000  Uiso   1.00
C444   C     0.28000   0.41965   0.26116   0.00000  Uiso   1.00
C445   C     0.33061   0.41251   0.22645   0.00000  Uiso   1.00
C446   C     0.33155   0.40037   0.28853   0.00000  Uiso   1.00
H447   H     0.22850   0.41607   0.24768   0.00000  Uiso   1.00
N448   N     0.21646   0.51004   0.04496   0.00000  Uiso   1.00
N449   N     0.28039   0.43808   0.19894   0.00000  Uiso   1.00
H450   H     0.24173   0.45926   0.25752   0.00000  Uiso   1.00
H451   H     0.20349   0.53000   0.92684   0.00000  Uiso   1.00
H452   H     0.14092   0.58792   0.99574   0.00000  Uiso   1.00
H453   H     0.24506   0.49121   0.94741   0.00000  Uiso   1.00
H454   H     0.26171   0.50188   0.98854   0.00000  Uiso   1.00
H455   H     0.23243   0.46715   0.98579   0.00000  Uiso   1.00
H456   H     0.18340   0.57149   0.07088   0.00000  Uiso   1.00
H457   H     0.14207   0.57927   0.05549   0.00000  Uiso   1.00
H458   H     0.15452   0.53618   0.07009   0.00000  Uiso   1.00
O459   O     0.18311   0.46073   0.03817   0.00000  Uiso   1.00
O460   O     0.24936   0.55994   0.05018   0.00000  Uiso   1.00
H461   H     0.28292   0.55815   0.10461   0.00000  Uiso   1.00
H462   H     0.19262   0.41431   0.08476   0.00000  Uiso   1.00
H463   H     0.30360   0.53394   0.15932   0.00000  Uiso   1.00
H464   H     0.36209   0.38772   0.18899   0.00000  Uiso   1.00
H465   H     0.33340   0.41869   0.17000   0.00000  Uiso   1.00
H466   H     0.37404   0.39606   0.25478   0.00000  Uiso   1.00
H467   H     0.21539   0.38891   0.13815   0.00000  Uiso   1.00
H468   H     0.23501   0.42723   0.29174   0.00000  Uiso   1.00
O469   O     0.25195   0.38564   0.19077   0.00000  Uiso   1.00
O470   O     0.30977   0.48972   0.20810   0.00000  Uiso   1.00
H471   H     0.36860   0.43370   0.19318   0.00000  Uiso   1.00
H472   H     0.97467   0.22464   0.59386   0.00000  Uiso   1.00
C473   C     0.29743   0.34561   0.43961   0.00000  Uiso   1.00
C474   C     0.27738   0.33896   0.41132   0.00000  Uiso   1.00
C475   C     0.24330   0.33392   0.41603   0.00000  Uiso   1.00
C476   C     0.22921   0.33622   0.44945   0.00000  Uiso   1.00
C477   C     0.24879   0.34653   0.47720   0.00000  Uiso   1.00
C478   C     0.28283   0.35116   0.47202   0.00000  Uiso   1.00
C479   C     0.22265   0.32346   0.38607   0.00000  Uiso   1.00
C480   C     0.23396   0.34994   0.51284   0.00000  Uiso   1.00
C481   C     0.19608   0.28750   0.46730   0.00000  Uiso   1.00
C482   C     0.16577   0.27240   0.47612   0.00000  Uiso   1.00
C483   C     0.13647   0.29277   0.47325   0.00000  Uiso   1.00
C484   C     0.13792   0.32778   0.46146   0.00000  Uiso   1.00
C485   C     0.16902   0.34196   0.45336   0.00000  Uiso   1.00
C486   C     0.16420   0.23761   0.48806   0.00000  Uiso   1.00
C487   C     0.13388   0.22327   0.49755   0.00000  Uiso   1.00
C488   C     0.10450   0.24340   0.49511   0.00000  Uiso   1.00
C489   C     0.10571   0.27816   0.48259   0.00000  Uiso   1.00
C490   C     0.07630   0.29842   0.47978   0.00000  Uiso   1.00
C491   C     0.07790   0.33310   0.46736   0.00000  Uiso   1.00
C492   C     0.10840   0.34767   0.45842   0.00000  Uiso   1.00
C493   C     0.07389   0.22980   0.50542   0.00000  Uiso   1.00
C494   C     0.04609   0.28349   0.49005   0.00000  Uiso   1.00
C495   C     1.01519   0.23576   0.51654   0.00000  Uiso   1.00
C496   C     1.00536   0.20641   0.45941   0.00000  Uiso   1.00
C497   C     0.97206   0.19298   0.51279   0.00000  Uiso   1.00
C498   C     1.02488   0.26590   0.57274   0.00000  Uiso   1.00
C499   C     0.98061   0.22154   0.56672   0.00000  Uiso   1.00
C500   C     1.00612   0.24103   0.55137   0.00000  Uiso   1.00
C501   C     0.99723   0.21245   0.49685   0.00000  Uiso   1.00
C502   C     0.96436   0.19647   0.54798   0.00000  Uiso   1.00
H503   H     0.02254   0.29260   0.56113   0.00000  Uiso   1.00
N504   N     0.19722   0.32175   0.45660   0.00000  Uiso   1.00
N505   N     0.04558   0.24999   0.50314   0.00000  Uiso   1.00
H506   H     0.05151   0.25801   0.57362   0.00000  Uiso   1.00
H507   H     0.28866   0.33485   0.38618   0.00000  Uiso   1.00
H508   H     0.29830   0.35708   0.49371   0.00000  Uiso   1.00
H509   H     0.23725   0.32325   0.36156   0.00000  Uiso   1.00
H510   H     0.21295   0.29698   0.39119   0.00000  Uiso   1.00
H511   H     0.20150   0.34210   0.38246   0.00000  Uiso   1.00
H512   H     0.22553   0.32420   0.52285   0.00000  Uiso   1.00
H513   H     0.25219   0.35975   0.53130   0.00000  Uiso   1.00
H514   H     0.21246   0.36843   0.51180   0.00000  Uiso   1.00
O515   O     0.17117   0.37618   0.44257   0.00000  Uiso   1.00
O516   O     0.22489   0.26795   0.46992   0.00000  Uiso   1.00
H517   H     0.18642   0.22143   0.49043   0.00000  Uiso   1.00
H518   H     0.10878   0.37457   0.44927   0.00000  Uiso   1.00
H519   H     0.13359   0.19646   0.50700   0.00000  Uiso   1.00
H520   H     0.98257   0.21011   0.44374   0.00000  Uiso   1.00
H521   H     0.02411   0.22460   0.44872   0.00000  Uiso   1.00
H522   H     0.95939   0.17403   0.49791   0.00000  Uiso   1.00
H523   H     0.05565   0.34920   0.46485   0.00000  Uiso   1.00
H524   H     1.01529   0.26646   0.59975   0.00000  Uiso   1.00
O525   O     0.01710   0.30269   0.48755   0.00000  Uiso   1.00
O526   O     0.07243   0.19629   0.51867   0.00000  Uiso   1.00
H527   H     1.01499   0.17938   0.45668   0.00000  Uiso   1.00
H528   H     0.02855   0.67166   0.81565   0.00000  Uiso   1.00
C529   C     0.92351   0.02444   0.65041   0.00000  Uiso   1.00
C530   C     0.94061   0.00353   0.62689   0.00000  Uiso   1.00
C531   C     0.94807   0.96848   0.63546   0.00000  Uiso   1.00
C532   C     0.93683   0.95381   0.66737   0.00000  Uiso   1.00
C533   C     0.91633   0.97395   0.68922   0.00000  Uiso   1.00
C534   C     0.91048   0.00932   0.68092   0.00000  Uiso   1.00
C535   C     0.97003   0.94763   0.61183   0.00000  Uiso   1.00
C536   C     0.90187   0.95814   0.72197   0.00000  Uiso   1.00
C537   C     0.97549   0.92177   0.70425   0.00000  Uiso   1.00
C538   C     0.99049   0.89084   0.71704   0.00000  Uiso   1.00
C539   C     0.98106   0.85900   0.70361   0.00000  Uiso   1.00
C540   C     0.95626   0.85856   0.67828   0.00000  Uiso   1.00
C541   C     0.94080   0.89022   0.66734   0.00000  Uiso   1.00
C542   C     0.01479   0.89107   0.74272   0.00000  Uiso   1.00
C543   C     0.02964   0.86008   0.75496   0.00000  Uiso   1.00
C544   C     0.02097   0.82822   0.74127   0.00000  Uiso   1.00
C545   C     0.99673   0.82763   0.71541   0.00000  Uiso   1.00
C546   C     0.98825   0.79579   0.70126   0.00000  Uiso   1.00
C547   C     0.96345   0.79557   0.67598   0.00000  Uiso   1.00
C548   C     0.94765   0.82659   0.66460   0.00000  Uiso   1.00
C549   C     0.03594   0.79687   0.75302   0.00000  Uiso   1.00
C550   C     1.00492   0.76506   0.71291   0.00000  Uiso   1.00
C551   C     0.04309   0.73437   0.75280   0.00000  Uiso   1.00
C552   C     0.09769   0.74863   0.72191   0.00000  Uiso   1.00
C553   C     0.09391   0.70267   0.76886   0.00000  Uiso   1.00
C554   C     0.98866   0.71926   0.78278   0.00000  Uiso   1.00
C555   C     0.04189   0.68691   0.79616   0.00000  Uiso   1.00
C556   C     0.02515   0.71302   0.77658   0.00000  Uiso   1.00
C557   C     0.07753   0.72794   0.74794   0.00000  Uiso   1.00
C558   C     0.07624   0.68242   0.79310   0.00000  Uiso   1.00
H559   H     0.97480   0.71411   0.75895   0.00000  Uiso   1.00
N560   N     0.95086   0.92106   0.68017   0.00000  Uiso   1.00
N561   N     0.02780   0.76603   0.73881   0.00000  Uiso   1.00
H562   H     0.98391   0.74658   0.79009   0.00000  Uiso   1.00
H563   H     0.95040   0.01525   0.60312   0.00000  Uiso   1.00
H564   H     0.89679   0.02546   0.69885   0.00000  Uiso   1.00
H565   H     0.97884   0.96353   0.58920   0.00000  Uiso   1.00
H566   H     0.99207   0.93742   0.62620   0.00000  Uiso   1.00
H567   H     0.95608   0.92551   0.60208   0.00000  Uiso   1.00
H568   H     0.92183   0.95132   0.74065   0.00000  Uiso   1.00
H569   H     0.88402   0.97629   0.73448   0.00000  Uiso   1.00
H570   H     0.88848   0.93423   0.71588   0.00000  Uiso   1.00
O571   O     0.91571   0.89024   0.64366   0.00000  Uiso   1.00
O572   O     0.98591   0.95309   0.71577   0.00000  Uiso   1.00
H573   H     0.02234   0.91519   0.75360   0.00000  Uiso   1.00
H574   H     0.92891   0.82549   0.64484   0.00000  Uiso   1.00
H575   H     0.04807   0.86121   0.77501   0.00000  Uiso   1.00
H576   H     0.11137   0.73062   0.70475   0.00000  Uiso   1.00
H577   H     0.08205   0.76615   0.70523   0.00000  Uiso   1.00
H578   H     0.12064   0.69939   0.76689   0.00000  Uiso   1.00
H579   H     0.95600   0.77140   0.66509   0.00000  Uiso   1.00
H580   H     0.97892   0.70192   0.80387   0.00000  Uiso   1.00
O581   O     0.99840   0.73406   0.69806   0.00000  Uiso   1.00
O582   O     0.05888   0.79712   0.77899   0.00000  Uiso   1.00
H583   H     0.11580   0.76452   0.73548   0.00000  Uiso   1.00
H584   H     0.90239   0.24255   0.65444   0.00000  Uiso   1.00
C585   C     0.03160   0.54911   0.83639   0.00000  Uiso   1.00
C586   C     0.01621   0.52796   0.86180   0.00000  Uiso   1.00
C587   C     0.99437   0.50206   0.85259   0.00000  Uiso   1.00
C588   C    -0.01222   0.49731   0.81732   0.00000  Uiso   1.00
C589   C     0.00011   0.52119   0.79203   0.00000  Uiso   1.00
C590   C     0.02185   0.54708   0.80183   0.00000  Uiso   1.00
C591   C     0.98012   0.47798   0.88015   0.00000  Uiso   1.00
C592   C    -0.00802   0.51751   0.75444   0.00000  Uiso   1.00
C593   C     0.94144   0.46116   0.80188   0.00000  Uiso   1.00
C594   C     0.92909   0.42924   0.79134   0.00000  Uiso   1.00
C595   C     0.95145   0.40120   0.78617   0.00000  Uiso   1.00
C596   C     0.98555   0.40536   0.79167   0.00000  Uiso   1.00
C597   C    -0.00329   0.43762   0.80202   0.00000  Uiso   1.00
C598   C     0.89511   0.42466   0.78571   0.00000  Uiso   1.00
C599   C     0.88357   0.39278   0.77485   0.00000  Uiso   1.00
C600   C     0.90574   0.36476   0.76931   0.00000  Uiso   1.00
C601   C     0.93979   0.36899   0.77520   0.00000  Uiso   1.00
C602   C     0.96233   0.34121   0.76974   0.00000  Uiso   1.00
C603   C    -0.00377   0.34558   0.77573   0.00000  Uiso   1.00
C604   C     0.00772   0.37731   0.78657   0.00000  Uiso   1.00
C605   C     0.89493   0.33271   0.75741   0.00000  Uiso   1.00
C606   C     0.95048   0.30988   0.75770   0.00000  Uiso   1.00
C607   C     0.90712   0.27494   0.73537   0.00000  Uiso   1.00
C608   C     0.90871   0.24170   0.79368   0.00000  Uiso   1.00
C609   C     0.90580   0.21150   0.73761   0.00000  Uiso   1.00
C610   C     0.90566   0.30791   0.67726   0.00000  Uiso   1.00
C611   C     0.90260   0.24290   0.68248   0.00000  Uiso   1.00
C612   C     0.90418   0.27469   0.69895   0.00000  Uiso   1.00
C613   C     0.90646   0.24305   0.75484   0.00000  Uiso   1.00
C614   C     0.90472   0.21141   0.70150   0.00000  Uiso   1.00
H615   H     0.92897   0.32156   0.68248   0.00000  Uiso   1.00
N616   N     0.97475   0.46475   0.80683   0.00000  Uiso   1.00
N617   N     0.91739   0.30630   0.75128   0.00000  Uiso   1.00
H618   H     0.88410   0.32509   0.68346   0.00000  Uiso   1.00
H619   H     0.02295   0.53007   0.88868   0.00000  Uiso   1.00
H620   H     0.03320   0.56376   0.78215   0.00000  Uiso   1.00
H621   H     0.98764   0.48521   0.90647   0.00000  Uiso   1.00
H622   H     0.95263   0.47919   0.87909   0.00000  Uiso   1.00
H623   H     0.98885   0.45086   0.87607   0.00000  Uiso   1.00
H624   H     0.96470   0.51934   0.75102   0.00000  Uiso   1.00
H625   H     0.00341   0.53823   0.73787   0.00000  Uiso   1.00
H626   H     0.00121   0.49194   0.74544   0.00000  Uiso   1.00
O627   O     0.02996   0.44204   0.80722   0.00000  Uiso   1.00
O628   O     0.92011   0.48879   0.80709   0.00000  Uiso   1.00
H629   H     0.87736   0.44575   0.78945   0.00000  Uiso   1.00
H630   H     0.03406   0.37983   0.79070   0.00000  Uiso   1.00
H631   H     0.85726   0.39027   0.77056   0.00000  Uiso   1.00
H632   H     0.93224   0.22835   0.80160   0.00000  Uiso   1.00
H633   H     0.90784   0.26795   0.80471   0.00000  Uiso   1.00
H634   H     0.90785   0.18704   0.75224   0.00000  Uiso   1.00
H635   H     0.01404   0.32458   0.77184   0.00000  Uiso   1.00
H636   H     0.90509   0.30285   0.64914   0.00000  Uiso   1.00
O637   O     0.97240   0.28296   0.75135   0.00000  Uiso   1.00
O638   O     0.86188   0.32812   0.75131   0.00000  Uiso   1.00
H639   H     0.88757   0.22694   0.80484   0.00000  Uiso   1.00
H640   H     1.00907   0.64274   0.90480   0.00000  Uiso   1.00
C641   C     0.70680   0.81013   0.09217   0.00000  Uiso   1.00
C642   C     0.73489   0.80770   0.11314   0.00000  Uiso   1.00
C643   C     0.76382   0.79019   0.10186   0.00000  Uiso   1.00
C644   C     0.76461   0.77518   0.06895   0.00000  Uiso   1.00
C645   C     0.73565   0.77615   0.04865   0.00000  Uiso   1.00
C646   C     0.70704   0.79363   0.06049   0.00000  Uiso   1.00
C647   C     0.79424   0.78913   0.12409   0.00000  Uiso   1.00
C648   C     0.73564   0.76001   1.01374   0.00000  Uiso   1.00
C649   C     0.80701   0.72945   0.06270   0.00000  Uiso   1.00
C650   C     0.83751   0.71722   0.04911   0.00000  Uiso   1.00
C651   C     0.85571   0.73914   1.02638   0.00000  Uiso   1.00
C652   C     0.84350   0.77289   1.01798   0.00000  Uiso   1.00
C653   C     0.81335   0.78425   0.03279   0.00000  Uiso   1.00
C654   C     0.85027   0.68378   0.05771   0.00000  Uiso   1.00
C655   C     0.88063   0.67229   1.04390   0.00000  Uiso   1.00
C656   C     0.89884   0.69384   1.02095   0.00000  Uiso   1.00
C657   C     0.88624   0.72734   1.01206   0.00000  Uiso   1.00
C658   C     0.90413   0.74912   0.98895   0.00000  Uiso   1.00
C659   C     0.89159   0.78269   0.98063   0.00000  Uiso   1.00
C660   C     0.86172   0.79450   0.99512   0.00000  Uiso   1.00
C661   C     0.92945   0.68287   1.00669   0.00000  Uiso   1.00
C662   C     0.93424   0.73679   0.97480   0.00000  Uiso   1.00
C663   C     0.97776   0.69265   0.96943   0.00000  Uiso   1.00
C664   C     1.00917   0.72842   1.01242   0.00000  Uiso   1.00
C665   C     0.03814   0.69539   0.96594   0.00000  Uiso   1.00
C666   C     0.94659   0.65701   0.92685   0.00000  Uiso   1.00
C667   C     1.00875   0.66007   0.92633   0.00000  Uiso   1.00
C668   C     0.97832   0.67003   0.94136   0.00000  Uiso   1.00
C669   C     1.00804   0.70502   0.98201   0.00000  Uiso   1.00
C670   C     0.03869   0.67296   0.93812   0.00000  Uiso   1.00
H671   H     0.93014   0.67938   0.91912   0.00000  Uiso   1.00
N672   N     0.79564   0.76252   0.05453   0.00000  Uiso   1.00
N673   N     0.94643   0.70427   0.98397   0.00000  Uiso   1.00
H674   H     0.93375   0.64047   0.94661   0.00000  Uiso   1.00
H675   H     0.73480   0.82105   0.13738   0.00000  Uiso   1.00
H676   H     0.68533   0.79597   0.04422   0.00000  Uiso   1.00
H677   H     0.78997   0.80297   0.14854   0.00000  Uiso   1.00
H678   H     0.80125   0.76170   0.13084   0.00000  Uiso   1.00
H679   H     0.81512   0.80162   0.10985   0.00000  Uiso   1.00
H680   H     0.74223   0.73190   1.01660   0.00000  Uiso   1.00
H681   H     0.71094   0.76262   1.00137   0.00000  Uiso   1.00
H682   H     0.75396   0.77297   0.99631   0.00000  Uiso   1.00
O683   O     0.80154   0.81737   0.02535   0.00000  Uiso   1.00
O684   O     0.78858   0.70815   0.08420   0.00000  Uiso   1.00
H685   H     0.83694   0.66645   0.07528   0.00000  Uiso   1.00
H686   H     0.85292   0.82058   0.98824   0.00000  Uiso   1.00
H687   H     0.88974   0.64643   1.05124   0.00000  Uiso   1.00
H688   H     1.01940   0.75391   1.00396   0.00000  Uiso   1.00
H689   H     0.98443   0.73313   1.02433   0.00000  Uiso   1.00
H690   H     0.06123   0.70504   0.97551   0.00000  Uiso   1.00
H691   H     0.90491   0.80003   0.96306   0.00000  Uiso   1.00
H692   H     0.95126   0.64121   0.90369   0.00000  Uiso   1.00
O693   O     0.95165   0.75755   0.95180   0.00000  Uiso   1.00
O694   O     0.94244   0.65061   1.01573   0.00000  Uiso   1.00
H695   H     1.02535   0.71632   1.03273   0.00000  Uiso   1.00
H696   H     0.44542   0.45523   0.29670   0.00000  Uiso   1.00
C697   C     0.60295   0.77382   0.18434   0.00000  Uiso   1.00
C698   C     0.62102   0.76977   0.21498   0.00000  Uiso   1.00
C699   C     0.61577   0.74101   0.23770   0.00000  Uiso   1.00
C700   C     0.59277   0.71561   0.22889   0.00000  Uiso   1.00
C701   C     0.57581   0.71901   0.19714   0.00000  Uiso   1.00
C702   C     0.58063   0.74838   0.17549   0.00000  Uiso   1.00
C703   C     0.63411   0.73796   0.27136   0.00000  Uiso   1.00
C704   C     0.55246   0.69145   0.18638   0.00000  Uiso   1.00
C705   C     0.55741   0.68940   0.27304   0.00000  Uiso   1.00
C706   C     0.54545   0.65982   0.29103   0.00000  Uiso   1.00
C707   C     0.56282   0.62789   0.28814   0.00000  Uiso   1.00
C708   C     0.59262   0.62638   0.26886   0.00000  Uiso   1.00
C709   C     0.60351   0.65663   0.25111   0.00000  Uiso   1.00
C710   C     0.51587   0.66109   0.31052   0.00000  Uiso   1.00
C711   C     0.50296   0.63077   0.32573   0.00000  Uiso   1.00
C712   C     0.51933   0.59853   0.32175   0.00000  Uiso   1.00
C713   C     0.54973   0.59718   0.30352   0.00000  Uiso   1.00
C714   C     0.56643   0.56501   0.29952   0.00000  Uiso   1.00
C715   C     0.59694   0.56407   0.28165   0.00000  Uiso   1.00
C716   C     0.60992   0.59443   0.26654   0.00000  Uiso   1.00
C717   C     0.50539   0.56733   0.33421   0.00000  Uiso   1.00
C718   C     0.55142   0.53444   0.31228   0.00000  Uiso   1.00
C719   C     0.50303   0.50451   0.33490   0.00000  Uiso   1.00
C720   C     0.52658   0.49809   0.39598   0.00000  Uiso   1.00
C721   C     0.48484   0.45745   0.37389   0.00000  Uiso   1.00
C722   C     0.48009   0.51084   0.27411   0.00000  Uiso   1.00
C723   C     0.46218   0.46377   0.31627   0.00000  Uiso   1.00
C724   C     0.48203   0.49251   0.30909   0.00000  Uiso   1.00
C725   C     0.50473   0.48655   0.36743   0.00000  Uiso   1.00
C726   C     0.46305   0.44645   0.34867   0.00000  Uiso   1.00
H727   H     0.50494   0.51053   0.26149   0.00000  Uiso   1.00
N728   N     0.58522   0.68699   0.25251   0.00000  Uiso   1.00
N729   N     0.52094   0.53607   0.32817   0.00000  Uiso   1.00
H730   H     0.47147   0.53818   0.27702   0.00000  Uiso   1.00
H731   H     0.63809   0.78975   0.22175   0.00000  Uiso   1.00
H732   H     0.56696   0.75149   0.15155   0.00000  Uiso   1.00
H733   H     0.65071   0.76029   0.27457   0.00000  Uiso   1.00
H734   H     0.61615   0.73732   0.29332   0.00000  Uiso   1.00
H735   H     0.64951   0.71370   0.27222   0.00000  Uiso   1.00
H736   H     0.53169   0.68909   0.20530   0.00000  Uiso   1.00
H737   H     0.54178   0.69763   0.16050   0.00000  Uiso   1.00
H738   H     0.56598   0.66608   0.18516   0.00000  Uiso   1.00
O739   O     0.63144   0.65518   0.23057   0.00000  Uiso   1.00
O740   O     0.53988   0.72034   0.27420   0.00000  Uiso   1.00
H741   H     0.50218   0.68536   0.31342   0.00000  Uiso   1.00
H742   H     0.63317   0.59264   0.25240   0.00000  Uiso   1.00
H743   H     0.47972   0.63258   0.33991   0.00000  Uiso   1.00
H744   H     0.54403   0.47653   0.40366   0.00000  Uiso   1.00
H745   H     0.54136   0.52108   0.38819   0.00000  Uiso   1.00
H746   H     0.48544   0.44423   0.39910   0.00000  Uiso   1.00
H747   H     0.61052   0.53976   0.27864   0.00000  Uiso   1.00
H748   H     0.46259   0.49808   0.25682   0.00000  Uiso   1.00
O749   O     0.56644   0.50269   0.30698   0.00000  Uiso   1.00
O750   O     0.47503   0.56804   0.35060   0.00000  Uiso   1.00
H751   H     0.51100   0.50487   0.41874   0.00000  Uiso   1.00
loop_
_geom_bond_atom_site_label_1
_geom_bond_atom_site_label_2
_geom_bond_distance
_geom_bond_site_symmetry_2
_ccdc_geom_bond_type
C0     O11     1.270   .     A
C0     O12     1.281   .     A
C0     C585    1.478   .     S
Sm1    O5      2.266   .     S
Sm1    O6      2.284   .     S
Sm1    O8      2.234   .     S
Sm1    O9      2.263   .     S
Sm1    O10     2.281   .     S
Sm1    O13     2.225   .     S
Sm2    O7      2.280   .     S
Sm2    O11     2.240   .     S
Sm2    O12     2.267   .     S
Sm2    O14     2.260   .     S
Sm2    O15     2.259   .     S
Sm2    O16     2.250   .     S
C3     O13     1.266   .     A
C3     O14     1.272   .     A
C3     C417    1.472   .     S
C4     O15     1.268   .     A
C4     O16     1.267   .     A
C4     C390    1.476   .     S
O5     C17     1.257   .     A
O6     C17     1.263   .     A
O7     C18     1.282   .     A
O8     C18     1.273   .     A
O9     C19     1.258   .     A
O10    C19     1.263   .     A
C17    C110    1.478   .     S
C18    C558    1.465   .     S
C19    C670    1.479   .     S
C20    O31     1.264   .     A
C20    O32     1.260   .     A
C20    C697    1.467   .     S
Sm21   O25     2.232   .     S
Sm21   O26     2.259   .     S
Sm21   O28     2.219   .     S
Sm21   O29     2.250   .     S
Sm21   O30     2.267   .     S
Sm21   O33     2.243   .     S
Sm22   O27     2.274   .     S
Sm22   O31     2.296   .     S
Sm22   O32     2.280   .     S
Sm22   O34     2.301   .     S
Sm22   O35     2.275   .     S
Sm22   O36     2.255   .     S
C23    O33     1.276   .     A
C23    O34     1.286   .     A
C23    C641    1.469   .     S
C24    O35     1.270   .     A
C24    O36     1.269   .     A
C24    C81     1.477   .     S
O25    C37     1.272   .     A
O26    C37     1.284   .     A
O27    C38     1.274   .     A
O28    C38     1.265   .     A
O29    C39     1.264   .     A
O30    C39     1.271   .     A
C37    C278    1.470   .     S
C38    C166    1.464   .     S
C39    C334    1.476   .     S
C40    O51     1.272   .     A
C40    O52     1.280   .     A
C40    C305    1.465   .     S
Sm41   O45     2.287   .     S
Sm41   O46     2.255   .     S
Sm41   O48     2.300   .     S
Sm41   O49     2.237   .     S
Sm41   O50     2.222   .     S
Sm41   O53     2.280   .     S
Sm42   O47     2.238   .     S
Sm42   O51     2.240   .     S
Sm42   O52     2.257   .     S
Sm42   O54     2.211   .     S
Sm42   O55     2.269   .     S
Sm42   O56     2.260   .     S
C43    O53     1.275   .     A
C43    O54     1.264   .     A
C43    C502    1.478   .     S
C44    O55     1.260   .     A
C44    O56     1.262   .     A
C44    C193    1.465   .     S
O45    C57     1.270   .     A
O46    C57     1.259   .     A
O47    C58     1.276   .     A
O48    C58     1.289   .     A
O49    C59     1.282   .     A
O50    C59     1.281   .     A
C57    C614    1.465   .     S
C58    C249    1.472   .     S
C59    C529    1.471   .     S
C60    O71     1.266   .     A
C60    O72     1.268   .     A
C60    C446    1.466   .     S
Sm61   O65     2.276   .     S
Sm61   O66     2.251   .     S
Sm61   O68     2.309   .     S
Sm61   O69     2.227   .     S
Sm61   O70     2.226   .     S
Sm61   O73     2.286   .     S
Sm62   O67     2.209   .     S
Sm62   O71     2.275   .     S
Sm62   O72     2.253   .     S
Sm62   O74     2.205   .     S
Sm62   O75     2.272   .     S
Sm62   O76     2.251   .     S
C63    O73     1.277   .     A
C63    O74     1.266   .     A
C63    C137    1.479   .     S
C64    O75     1.267   .     A
C64    O76     1.268   .     A
C64    C726    1.472   .     S
O65    C77     1.270   .     A
O66    C77     1.260   .     A
O67    C78     1.270   .     A
O68    C78     1.290   .     A
O69    C79     1.278   .     A
O70    C79     1.279   .     A
C77    C222    1.463   .     S
C78    C361    1.470   .     S
C79    C473    1.468   .     S
H80    C107    1.084   .     S
C81    C82     1.403   .     A
C81    C86     1.402   1_554 A
C82    C83     1.401   .     A
C82    H115    1.084   .     S
C83    C87     1.506   .     S
C83    C84     1.411   1_554 A
C84    C85     1.413   .     A
C84    N112    1.443   .     S
C84    C83     1.411   1_556 A
C85    C86     1.408   .     A
C85    C88     1.503   .     S
C86    H116    1.083   .     S
C86    C81     1.402   1_556 A
C87    H117    1.111   .     S
C87    H118    1.110   .     S
C87    H119    1.110   .     S
C88    H120    1.110   .     S
C88    H121    1.111   .     S
C88    H122    1.110   .     S
C89    O124    1.373   .     S
C89    C90     1.405   1_554 A
C89    N112    1.371   1_554 A
C90    C91     1.408   .     A
C90    C89     1.405   1_556 A
C90    C94     1.405   1_556 A
C91    C92     1.410   .     A
C91    C97     1.416   .     A
C92    C93     1.409   .     A
C92    C100    1.405   .     A
C93    N112    1.370   .     A
C93    O123    1.373   .     S
C94    H125    1.083   .     S
C94    C90     1.405   1_554 A
C94    C95     1.397   1_554 A
C95    C96     1.405   .     A
C95    C94     1.397   1_556 A
C95    H127    1.083   1_556 S
C96    C97     1.409   .     A
C96    C101    1.407   .     A
C97    C98     1.408   .     A
C98    C99     1.407   .     A
C98    C102    1.409   .     A
C99    C100    1.399   .     A
C99    H131    1.083   .     S
C100   H126    1.083   .     S
C101   N113    1.370   .     A
C101   O134    1.373   .     S
C102   N113    1.372   .     A
C102   O133    1.373   .     S
C103   C108    1.413   .     A
C103   C109    1.416   .     A
C103   N113    1.445   .     S
C104   C109    1.507   .     S
C104   H128    1.111   .     S
C104   H129    1.109   .     S
C104   H135    1.110   1_556 S
C105   C109    1.406   .     A
C105   C110    1.402   .     A
C105   H130    1.084   .     S
C106   C108    1.505   .     S
C106   H111    1.110   .     S
C106   H114    1.111   .     S
C106   H132    1.111   .     S
C107   C108    1.406   .     A
C107   C110    1.402   .     A
N112   C89     1.371   1_556 A
H127   C95     1.083   1_554 S
H135   C104    1.110   1_554 S
H136   C163    1.085   .     S
C137   C138    1.406   .     A
C137   C142    1.403   .     A
C138   C139    1.402   .     A
C138   H171    1.084   .     S
C139   C140    1.410   .     A
C139   C143    1.506   .     S
C140   C141    1.410   .     A
C140   N168    1.438   .     S
C141   C142    1.402   .     A
C141   C144    1.505   .     S
C142   H172    1.083   .     S
C143   H173    1.111   .     S
C143   H174    1.111   .     S
C143   H175    1.110   .     S
C144   H176    1.110   .     S
C144   H177    1.111   .     S
C144   H178    1.110   .     S
C145   C146    1.401   .     A
C145   N168    1.370   .     A
C145   O180    1.373   .     S
C146   C147    1.408   .     A
C146   C150    1.405   .     A
C147   C148    1.410   .     A
C147   C153    1.412   .     A
C148   C149    1.405   .     A
C148   C156    1.405   .     A
C149   N168    1.368   .     A
C149   O179    1.373   .     S
C150   C151    1.395   .     A
C150   H181    1.083   .     S
C151   C152    1.404   .     A
C151   H183    1.083   .     S
C152   C153    1.410   .     A
C152   C157    1.403   .     A
C153   C154    1.408   .     A
C154   C155    1.405   .     A
C154   C158    1.403   .     A
C155   C156    1.397   .     A
C155   H187    1.083   .     S
C156   H182    1.083   .     S
C157   N169    1.368   .     A
C157   O190    1.373   .     S
C158   N169    1.370   .     A
C158   O189    1.373   .     S
C159   C164    1.410   .     A
C159   N169    1.437   .     S
C159   C165    1.416   1_545 A
C160   C165    1.504   .     S
C160   H184    1.110   .     S
C160   H191    1.110   .     S
C160   H185    1.109   1_565 S
C161   C165    1.406   .     A
C161   C166    1.399   .     A
C161   H186    1.085   .     S
C162   C164    1.507   .     S
C162   H167    1.110   .     S
C162   H170    1.110   .     S
C162   H188    1.111   .     S
C163   C166    1.399   .     A
C163   C164    1.395   1_565 A
C164   C163    1.395   1_545 A
C165   C159    1.416   1_565 A
H185   C160    1.109   1_545 S
H192   C219    1.084   .     S
C193   C194    1.400   .     A
C193   C198    1.397   .     A
C194   C195    1.402   .     A
C194   H227    1.084   .     S
C195   C196    1.414   .     A
C195   C199    1.507   .     S
C196   C197    1.415   .     A
C196   N224    1.442   .     S
C197   C198    1.402   .     A
C197   C200    1.505   .     S
C198   H228    1.084   .     S
C199   H229    1.111   .     S
C199   H230    1.109   .     S
C199   H231    1.110   .     S
C200   H232    1.110   .     S
C200   H233    1.111   .     S
C200   H234    1.109   .     S
C201   C202    1.408   .     A
C201   N224    1.371   .     A
C201   O236    1.372   .     S
C202   C203    1.408   .     A
C202   C206    1.406   .     A
C203   C204    1.408   .     A
C203   C209    1.413   .     A
C204   C205    1.401   .     A
C204   C212    1.405   .     A
C205   N224    1.371   .     A
C205   O235    1.374   .     S
C206   C207    1.399   .     A
C206   H237    1.083   .     S
C207   C208    1.405   .     A
C207   H239    1.083   .     S
C208   C209    1.409   .     A
C208   C213    1.408   .     A
C209   C210    1.407   .     A
C210   C211    1.404   .     A
C210   C214    1.400   .     A
C211   C212    1.394   .     A
C211   H243    1.083   .     S
C212   H238    1.083   .     S
C213   N225    1.370   .     A
C213   O246    1.372   .     S
C214   N225    1.371   .     A
C214   O245    1.374   .     S
C215   C220    1.415   .     A
C215   C221    1.416   .     A
C215   N225    1.440   .     S
C216   C221    1.505   .     S
C216   H240    1.111   .     S
C216   H241    1.110   .     S
C216   H247    1.111   .     S
C217   C221    1.398   .     A
C217   C222    1.397   .     A
C217   H242    1.084   .     S
C218   C220    1.506   .     S
C218   H223    1.110   .     S
C218   H226    1.109   .     S
C218   H244    1.111   .     S
C219   C220    1.403   .     A
C219   C222    1.399   .     A
H248   C275    1.084   .     S
C249   C250    1.402   .     A
C249   C254    1.400   .     A
C250   C251    1.397   .     A
C250   H283    1.084   .     S
C251   C252    1.411   .     A
C251   C255    1.507   .     S
C252   C253    1.415   .     A
C252   N280    1.442   .     S
C253   C254    1.407   .     A
C253   C256    1.503   .     S
C254   H284    1.084   .     S
C255   H285    1.111   .     S
C255   H286    1.109   .     S
C255   H287    1.110   1_545 S
C256   H288    1.110   .     S
C256   H289    1.111   .     S
C256   H290    1.109   .     S
C257   C258    1.404   .     A
C257   N280    1.370   .     A
C257   O292    1.373   .     S
C258   C262    1.405   .     A
C258   C259    1.408   1_545 A
C259   C260    1.409   .     A
C259   C265    1.414   .     A
C259   C258    1.408   1_565 A
C260   C261    1.407   .     A
C260   C268    1.406   .     A
C261   O291    1.373   .     S
C261   N280    1.371   1_565 A
C262   C263    1.396   .     A
C262   H293    1.083   .     S
C263   H295    1.083   .     S
C263   C264    1.405   1_545 A
C264   C265    1.408   .     A
C264   C269    1.404   .     A
C264   C263    1.405   1_565 A
C265   C266    1.409   .     A
C266   C267    1.406   .     A
C266   C270    1.407   .     A
C267   C268    1.398   .     A
C267   H299    1.083   .     S
C268   H294    1.083   .     S
C269   N281    1.371   .     A
C269   O302    1.373   .     S
C270   N281    1.371   .     A
C270   O301    1.373   .     S
C271   C276    1.414   .     A
C271   C277    1.418   .     A
C271   N281    1.443   .     S
C272   C277    1.505   .     S
C272   H296    1.110   .     S
C272   H297    1.107   .     S
C272   H303    1.110   .     S
C273   C278    1.399   .     A
C273   H298    1.085   .     S
C273   C277    1.404   1_554 A
C274   C276    1.506   .     S
C274   H279    1.109   .     S
C274   H282    1.108   .     S
C274   H300    1.110   .     S
C275   C276    1.401   .     A
C275   C278    1.400   1_556 A
C277   C273    1.404   1_556 A
C278   C275    1.400   1_554 A
N280   C261    1.371   1_545 A
H287   C255    1.110   1_565 S
H304   C331    1.084   .     S
C305   C306    1.398   .     A
C305   C310    1.399   .     A
C306   C307    1.399   .     A
C306   H339    1.084   .     S
C307   C308    1.413   .     A
C307   C311    1.507   .     S
C308   N336    1.445   .     S
C308   C309    1.416   1_545 A
C309   C312    1.504   .     S
C309   C308    1.416   1_565 A
C309   C310    1.409   1_565 A
C310   C309    1.409   1_545 A
C310   H340    1.084   1_545 S
C311   H341    1.110   .     S
C311   H342    1.110   .     S
C311   H343    1.109   .     S
C312   H344    1.109   .     S
C312   H345    1.111   .     S
C312   H346    1.111   .     S
C313   C314    1.406   .     A
C313   N336    1.372   1_565 A
C313   O348    1.373   1_565 S
C314   C315    1.408   .     A
C314   C318    1.406   .     A
C315   C316    1.409   .     A
C315   C321    1.415   .     A
C316   C317    1.408   .     A
C316   C324    1.406   .     A
C317   O347    1.372   .     S
C317   N336    1.370   1_565 A
C318   C319    1.397   .     A
C318   H349    1.083   .     S
C319   C320    1.405   .     A
C319   H351    1.083   .     S
C320   C321    1.409   .     A
C320   C325    1.406   .     A
C321   C322    1.408   .     A
C322   C323    1.406   .     A
C322   C326    1.408   .     A
C323   C324    1.399   .     A
C323   H355    1.083   .     S
C324   H350    1.083   .     S
C325   N337    1.369   .     A
C325   O358    1.373   .     S
C326   N337    1.371   .     A
C326   O357    1.373   .     S
C327   C332    1.412   .     A
C327   C333    1.417   .     A
C327   N337    1.444   .     S
C328   C333    1.506   .     S
C328   H352    1.111   .     S
C328   H353    1.108   .     S
C328   H359    1.111   .     S
C329   C333    1.405   .     A
C329   C334    1.401   .     A
C329   H354    1.084   .     S
C330   C332    1.505   .     S
C330   H335    1.110   .     S
C330   H338    1.111   .     S
C330   H356    1.111   .     S
C331   C332    1.402   .     A
C331   C334    1.402   .     A
N336   C313    1.372   1_545 A
N336   C317    1.370   1_545 A
H340   C310    1.084   1_565 S
O348   C313    1.373   1_545 S
H360   C387    1.084   .     S
C361   C362    1.400   .     A
C361   C366    1.399   .     A
C362   C363    1.398   .     A
C362   H395    1.084   .     S
C363   C364    1.413   .     A
C363   C367    1.507   .     S
C364   C365    1.417   .     A
C364   N392    1.443   .     S
C365   C366    1.407   .     A
C365   C368    1.504   .     S
C366   H396    1.084   .     S
C367   H397    1.111   .     S
C367   H398    1.109   .     S
C367   H399    1.110   .     S
C368   H400    1.110   .     S
C368   H401    1.111   .     S
C368   H402    1.109   .     S
C369   C370    1.408   .     A
C369   N392    1.372   .     A
C369   O404    1.373   .     S
C370   C371    1.408   .     A
C370   C374    1.406   .     A
C371   C372    1.409   .     A
C371   C377    1.416   .     A
C372   C373    1.405   .     A
C372   C380    1.405   .     A
C373   N392    1.371   .     A
C373   O403    1.374   .     S
C374   C375    1.399   .     A
C374   H405    1.083   .     S
C375   C376    1.406   .     A
C375   H407    1.083   .     S
C376   C377    1.409   .     A
C376   C381    1.409   .     A
C377   C378    1.408   .     A
C378   C379    1.406   .     A
C378   C382    1.406   .     A
C379   C380    1.397   .     A
C379   H411    1.083   .     S
C380   H406    1.083   .     S
C381   N393    1.371   .     A
C381   O414    1.373   .     S
C382   N393    1.372   .     A
C382   O413    1.373   .     S
C383   C388    1.415   .     A
C383   C389    1.416   .     A
C383   N393    1.445   .     S
C384   C389    1.506   .     S
C384   H408    1.110   .     S
C384   H409    1.108   .     S
C384   H415    1.110   .     S
C385   C389    1.401   .     A
C385   C390    1.400   .     A
C385   H410    1.084   .     S
C386   C388    1.504   .     S
C386   H391    1.110   .     S
C386   H394    1.109   .     S
C386   H412    1.111   .     S
C387   C388    1.406   .     A
C387   C390    1.401   .     A
H416   C443    1.084   .     S
C417   C418    1.401   .     A
C417   C422    1.401   .     A
C418   C419    1.406   .     A
C418   H451    1.084   .     S
C419   C420    1.415   .     A
C419   C423    1.504   .     S
C420   C421    1.411   .     A
C420   N448    1.441   1_556 S
C421   C422    1.397   .     A
C421   C424    1.506   1_556 S
C422   H452    1.084   .     S
C423   H453    1.111   .     S
C423   H454    1.110   .     S
C423   H455    1.109   .     S
C424   H456    1.109   .     S
C424   H457    1.111   .     S
C424   H458    1.110   .     S
C424   C421    1.506   1_554 S
C425   C426    1.404   .     A
C425   N448    1.370   .     A
C425   O460    1.373   .     S
C426   C427    1.409   .     A
C426   C430    1.405   .     A
C427   C428    1.409   .     A
C427   C433    1.414   .     A
C428   C429    1.406   .     A
C428   C436    1.405   .     A
C429   N448    1.370   .     A
C429   O459    1.373   .     S
C430   C431    1.396   .     A
C430   H461    1.083   .     S
C431   C432    1.405   .     A
C431   H463    1.083   .     S
C432   C433    1.408   .     A
C432   C437    1.403   .     A
C433   C434    1.409   .     A
C434   C435    1.406   .     A
C434   C438    1.407   .     A
C435   C436    1.398   .     A
C435   H467    1.083   .     S
C436   H462    1.083   .     S
C437   N449    1.371   .     A
C437   O470    1.374   .     S
C438   N449    1.371   .     A
C438   O469    1.372   .     S
C439   C444    1.417   .     A
C439   C445    1.415   .     A
C439   N449    1.442   .     S
C440   C445    1.506   .     S
C440   H464    1.111   .     S
C440   H465    1.108   .     S
C440   H471    1.110   .     S
C441   C445    1.397   .     A
C441   C446    1.397   .     A
C441   H466    1.085   .     S
C442   C444    1.505   .     S
C442   H447    1.109   .     S
C442   H450    1.110   .     S
C442   H468    1.111   .     S
C443   C444    1.408   .     A
C443   C446    1.399   .     A
N448   C420    1.441   1_554 S
H472   C499    1.084   .     S
C473   C474    1.401   .     A
C473   C478    1.400   .     A
C474   C475    1.401   .     A
C474   H507    1.084   .     S
C475   C476    1.411   .     A
C475   C479    1.505   .     S
C476   C477    1.412   .     A
C476   N504    1.437   .     S
C477   C478    1.400   .     A
C477   C480    1.505   .     S
C478   H508    1.084   .     S
C479   H509    1.110   .     S
C479   H510    1.110   .     S
C479   H511    1.110   .     S
C480   H512    1.110   .     S
C480   H513    1.111   .     S
C480   H514    1.110   .     S
C481   C482    1.399   .     A
C481   N504    1.369   .     A
C481   O516    1.374   .     S
C482   C483    1.408   .     A
C482   C486    1.404   .     A
C483   C484    1.410   .     A
C483   C489    1.412   .     A
C484   C485    1.407   .     A
C484   C492    1.405   .     A
C485   N504    1.369   .     A
C485   O515    1.372   .     S
C486   C487    1.393   .     A
C486   H517    1.083   .     S
C487   C488    1.404   .     A
C487   H519    1.083   .     S
C488   C489    1.409   .     A
C488   C493    1.401   .     A
C489   C490    1.409   .     A
C490   C491    1.406   .     A
C490   C494    1.406   .     A
C491   C492    1.398   .     A
C491   H523    1.083   .     S
C492   H518    1.083   .     S
C493   N505    1.369   .     A
C493   O526    1.374   .     S
C494   N505    1.369   .     A
C494   O525    1.372   .     S
C495   C500    1.412   .     A
C495   C501    1.413   .     A
C495   N505    1.438   1_655 S
C496   C501    1.505   .     S
C496   H520    1.110   .     S
C496   H527    1.110   .     S
C496   H521    1.109   1_655 S
C497   C501    1.400   .     A
C497   C502    1.403   .     A
C497   H522    1.084   .     S
C498   C500    1.506   .     S
C498   H524    1.111   .     S
C498   H503    1.110   1_655 S
C498   H506    1.110   1_655 S
C499   C500    1.402   .     A
C499   C502    1.404   .     A
H503   C498    1.110   1_455 S
N505   C495    1.438   1_455 S
H506   C498    1.110   1_455 S
H521   C496    1.109   1_455 S
H528   C555    1.085   .     S
C529   C530    1.401   .     A
C529   C534    1.400   .     A
C530   H563    1.084   .     S
C530   C531    1.405   1_545 A
C531   C532    1.414   .     A
C531   C535    1.505   .     S
C531   C530    1.405   1_565 A
C532   C533    1.414   .     A
C532   N560    1.445   .     S
C533   C536    1.504   .     S
C533   C534    1.403   1_565 A
C534   H564    1.085   .     S
C534   C533    1.403   1_545 A
C535   H565    1.110   .     S
C535   H566    1.111   .     S
C535   H567    1.109   .     S
C536   H568    1.109   .     S
C536   H569    1.111   .     S
C536   H570    1.110   .     S
C537   C538    1.401   .     A
C537   N560    1.370   .     A
C537   O572    1.375   .     S
C538   C539    1.408   .     A
C538   C542    1.404   1_655 A
C539   C540    1.408   .     A
C539   C545    1.415   .     A
C540   C541    1.411   .     A
C540   C548    1.407   .     A
C541   N560    1.373   .     A
C541   O571    1.372   .     S
C542   C543    1.393   .     A
C542   H573    1.083   .     S
C542   C538    1.404   1_455 A
C543   C544    1.404   .     A
C543   H575    1.083   .     S
C544   C549    1.401   .     A
C544   C545    1.407   1_455 A
C545   C546    1.409   .     A
C545   C544    1.407   1_655 A
C546   C547    1.407   .     A
C546   C550    1.410   .     A
C547   C548    1.401   .     A
C547   H579    1.083   .     S
C548   H574    1.083   .     S
C549   N561    1.372   .     A
C549   O582    1.373   .     S
C550   O581    1.373   .     S
C550   N561    1.371   1_655 A
C551   C556    1.416   .     A
C551   C557    1.418   .     A
C551   N561    1.445   .     S
C552   C557    1.505   .     S
C552   H576    1.110   .     S
C552   H577    1.109   .     S
C552   H583    1.110   .     S
C553   C557    1.403   .     A
C553   C558    1.398   .     A
C553   H578    1.085   .     S
C554   H559    1.108   .     S
C554   H562    1.110   .     S
C554   H580    1.110   .     S
C554   C556    1.505   1_655 S
C555   C556    1.403   .     A
C555   C558    1.397   .     A
C556   C554    1.505   1_455 S
N561   C550    1.371   1_455 A
H584   C611    1.085   .     S
C585   C586    1.403   .     A
C585   C590    1.402   .     A
C586   H619    1.083   .     S
C586   C587    1.402   1_455 A
C587   C591    1.506   .     S
C587   C586    1.402   1_655 A
C587   C588    1.411   1_655 A
C588   C589    1.413   .     A
C588   C587    1.411   1_455 A
C588   N616    1.442   1_455 S
C589   C590    1.406   .     A
C589   C592    1.505   .     S
C590   H620    1.083   .     S
C591   H621    1.111   .     S
C591   H622    1.110   .     S
C591   H623    1.110   .     S
C592   H625    1.111   .     S
C592   H626    1.110   .     S
C592   H624    1.110   1_455 S
C593   C594    1.410   .     A
C593   N616    1.370   .     A
C593   O628    1.372   .     S
C594   C595    1.410   .     A
C594   C598    1.406   .     A
C595   C596    1.408   .     A
C595   C601    1.415   .     A
C596   C597    1.402   1_655 A
C596   C604    1.404   1_655 A
C597   O627    1.374   .     S
C597   C596    1.402   1_455 A
C597   N616    1.371   1_455 A
C598   C599    1.400   .     A
C598   H629    1.083   .     S
C599   C600    1.407   .     A
C599   H631    1.083   .     S
C600   C601    1.409   .     A
C600   C605    1.410   .     A
C601   C602    1.408   .     A
C602   C606    1.402   .     A
C602   C603    1.404   1_655 A
C603   C604    1.394   .     A
C603   H635    1.083   .     S
C603   C602    1.404   1_455 A
C604   H630    1.083   .     S
C604   C596    1.404   1_455 A
C605   N617    1.372   .     A
C605   O638    1.373   .     S
C606   N617    1.371   .     A
C606   O637    1.374   .     S
C607   C612    1.415   .     A
C607   C613    1.418   .     A
C607   N617    1.444   .     S
C608   C613    1.505   .     S
C608   H632    1.110   .     S
C608   H633    1.109   .     S
C608   H639    1.110   .     S
C609   C613    1.405   .     A
C609   C614    1.397   .     A
C609   H634    1.084   .     S
C610   C612    1.507   .     S
C610   H615    1.111   .     S
C610   H618    1.110   .     S
C610   H636    1.112   .     S
C611   C612    1.401   .     A
C611   C614    1.398   .     A
N616   C588    1.442   1_655 S
N616   C597    1.371   1_655 A
H624   C592    1.110   1_655 S
H640   C667    1.084   .     S
C641   C642    1.400   .     A
C641   C646    1.398   .     A
C642   C643    1.408   .     A
C642   H675    1.084   .     S
C643   C644    1.415   .     A
C643   C647    1.505   .     S
C644   C645    1.414   .     A
C644   N672    1.446   .     S
C645   C646    1.404   .     A
C645   C648    1.505   1_554 S
C646   H676    1.084   .     S
C647   H677    1.111   .     S
C647   H678    1.110   .     S
C647   H679    1.111   .     S
C648   H680    1.110   .     S
C648   H681    1.111   .     S
C648   H682    1.110   .     S
C648   C645    1.505   1_556 S
C649   C650    1.410   .     A
C649   N672    1.371   .     A
C649   O684    1.372   .     S
C650   C654    1.406   .     A
C650   C651    1.409   1_554 A
C651   C652    1.408   .     A
C651   C657    1.417   .     A
C651   C650    1.409   1_556 A
C652   C660    1.406   .     A
C652   C653    1.406   1_556 A
C653   N672    1.372   .     A
C653   O683    1.373   .     S
C653   C652    1.406   1_554 A
C654   H685    1.083   .     S
C654   C655    1.400   1_554 A
C655   C656    1.406   .     A
C655   H687    1.083   .     S
C655   C654    1.400   1_556 A
C656   C657    1.408   .     A
C656   C661    1.409   .     A
C657   C658    1.409   .     A
C658   C659    1.405   .     A
C658   C662    1.407   .     A
C659   C660    1.397   .     A
C659   H691    1.083   .     S
C660   H686    1.083   .     S
C661   N673    1.372   .     A
C661   O694    1.373   .     S
C662   N673    1.371   .     A
C662   O693    1.373   .     S
C663   C668    1.414   .     A
C663   C669    1.417   .     A
C663   N673    1.446   .     S
C664   C669    1.507   .     S
C664   H688    1.110   .     S
C664   H689    1.109   .     S
C664   H695    1.110   .     S
C665   C670    1.401   .     A
C665   H690    1.084   .     S
C665   C669    1.406   1_455 A
C666   C668    1.506   .     S
C666   H671    1.110   .     S
C666   H674    1.109   .     S
C666   H692    1.111   .     S
C667   C668    1.404   .     A
C667   C670    1.402   1_655 A
C669   C665    1.406   1_655 A
C670   C667    1.402   1_455 A
H696   C723    1.084   .     S
C697   C698    1.400   .     A
C697   C702    1.398   .     A
C698   C699    1.408   .     A
C698   H731    1.084   .     S
C699   C700    1.415   .     A
C699   C703    1.504   .     S
C700   C701    1.413   .     A
C700   N728    1.443   .     S
C701   C702    1.399   .     A
C701   C704    1.506   .     S
C702   H732    1.084   .     S
C703   H733    1.112   .     S
C703   H734    1.110   .     S
C703   H735    1.110   .     S
C704   H736    1.109   .     S
C704   H737    1.110   .     S
C704   H738    1.110   .     S
C705   C706    1.405   .     A
C705   N728    1.371   .     A
C705   O740    1.373   .     S
C706   C707    1.408   .     A
C706   C710    1.405   .     A
C707   C708    1.409   .     A
C707   C713    1.415   .     A
C708   C709    1.408   .     A
C708   C716    1.406   .     A
C709   N728    1.370   .     A
C709   O739    1.373   .     S
C710   C711    1.397   .     A
C710   H741    1.083   .     S
C711   C712    1.405   .     A
C711   H743    1.083   .     S
C712   C713    1.409   .     A
C712   C717    1.405   .     A
C713   C714    1.409   .     A
C714   C715    1.405   .     A
C714   C718    1.407   .     A
C715   C716    1.398   .     A
C715   H747    1.083   .     S
C716   H742    1.083   .     S
C717   N729    1.370   .     A
C717   O750    1.373   .     S
C718   N729    1.370   .     A
C718   O749    1.373   .     S
C719   C724    1.412   .     A
C719   C725    1.416   .     A
C719   N729    1.441   .     S
C720   C725    1.505   .     S
C720   H744    1.111   .     S
C720   H745    1.109   .     S
C720   H751    1.111   .     S
C721   C725    1.406   .     A
C721   C726    1.402   .     A
C721   H746    1.084   .     S
C722   C724    1.506   .     S
C722   H727    1.110   .     S
C722   H730    1.110   .     S
C722   H748    1.111   .     S
C723   C724    1.398   .     A
C723   C726    1.399   .     A
