data_lcy+N173+E28
_audit_creation_date              2025-01-21
_audit_creation_method            'Materials Studio'
_symmetry_space_group_name_H-M    'P1'
_symmetry_Int_Tables_number       1
_symmetry_cell_setting            triclinic
loop_
_symmetry_equiv_pos_as_xyz
  x,y,z
_cell_length_a                    32.4912
_cell_length_b                    32.6366
_cell_length_c                    33.8271
_cell_angle_alpha                 93.1068
_cell_angle_beta                  86.5826
_cell_angle_gamma                 96.4925
loop_
_atom_site_label
_atom_site_type_symbol
_atom_site_fract_x
_atom_site_fract_y
_atom_site_fract_z
_atom_site_U_iso_or_equiv
_atom_site_adp_type
_atom_site_occupancy
Gd0    Gd    0.12850   0.63371   0.83998   0.00000  Uiso   1.00
Gd1    Gd    0.13075   0.58647   0.88770   0.00000  Uiso   1.00
O2     O     0.07873   0.54829   0.86041   0.00000  Uiso   1.00
O3     O     0.08129   0.58839   0.81002   0.00000  Uiso   1.00
O4     O     0.17813   0.60503   0.80530   0.00000  Uiso   1.00
O5     O     0.17513   0.55489   0.84654   0.00000  Uiso   1.00
O6     O     0.08295   0.68097   0.84508   0.00000  Uiso   1.00
O7     O     0.12282   0.67914   0.79363   0.00000  Uiso   1.00
O8     O     0.17744   0.67690   0.86909   0.00000  Uiso   1.00
C9     C     0.09343   0.69599   0.81159   0.00000  Uiso   1.00
O10    O     0.18314   0.62936   0.91199   0.00000  Uiso   1.00
O11    O     0.07924   0.65966   0.88049   0.00000  Uiso   1.00
C12    C     0.18956   0.57123   0.81463   0.00000  Uiso   1.00
O13    O     0.08565   0.61743   0.92804   0.00000  Uiso   1.00
O14    O     0.13567   0.53881   0.93178   0.00000  Uiso   1.00
O15    O     0.17759   0.59302   0.93466   0.00000  Uiso   1.00
C16    C     0.06678   0.55542   0.82681   0.00000  Uiso   1.00
C17    C     0.16608   0.55802   0.94885   0.00000  Uiso   1.00
C18    C     0.06898   0.64723   0.91533   0.00000  Uiso   1.00
C19    C     0.19532   0.66461   0.89807   0.00000  Uiso   1.00
Gd20   Gd    0.64559   0.85299   0.12009   0.00000  Uiso   1.00
Gd21   Gd    0.59867   0.90061   0.13116   0.00000  Uiso   1.00
O22    O     0.55886   0.86225   0.08920   0.00000  Uiso   1.00
O23    O     0.60352   0.81655   0.07758   0.00000  Uiso   1.00
O24    O     0.61247   0.81936   0.16976   0.00000  Uiso   1.00
O25    O     0.56683   0.86419   0.18081   0.00000  Uiso   1.00
O26    O     0.69995   0.85491   0.07480   0.00000  Uiso   1.00
O27    O     0.69009   0.80531   0.11260   0.00000  Uiso   1.00
O28    O     0.68590   0.88867   0.16433   0.00000  Uiso   1.00
C29    C     0.71276   0.82186   0.08502   0.00000  Uiso   1.00
O30    O     0.64143   0.93498   0.17466   0.00000  Uiso   1.00
O31    O     0.67538   0.88980   0.06977   0.00000  Uiso   1.00
C32    C     0.58082   0.83092   0.18894   0.00000  Uiso   1.00
O33    O     0.63020   0.93534   0.08026   0.00000  Uiso   1.00
O34    O     0.55212   0.94646   0.13809   0.00000  Uiso   1.00
O35    O     0.60535   0.95871   0.17103   0.00000  Uiso   1.00
C36    C     0.56846   0.82873   0.07247   0.00000  Uiso   1.00
C37    C     0.57153   0.97117   0.16217   0.00000  Uiso   1.00
C38    C     0.66046   0.92204   0.05961   0.00000  Uiso   1.00
C39    C     0.67459   0.92058   0.18345   0.00000  Uiso   1.00
Gd40   Gd    0.88520   0.09183   0.62670   0.00000  Uiso   1.00
Gd41   Gd    0.84286   0.14249   0.62407   0.00000  Uiso   1.00
O42    O     0.87489   0.17589   0.67370   0.00000  Uiso   1.00
O43    O     0.91987   0.13050   0.67383   0.00000  Uiso   1.00
O44    O     0.92661   0.12375   0.58199   0.00000  Uiso   1.00
O45    O     0.88964   0.17583   0.58131   0.00000  Uiso   1.00
O46    O     0.87581   0.03777   0.66647   0.00000  Uiso   1.00
O47    O     0.92923   0.04434   0.62798   0.00000  Uiso   1.00
O48    O     0.85234   0.05488   0.57769   0.00000  Uiso   1.00
C49    C     0.90926   0.02332   0.65439   0.00000  Uiso   1.00
O50    O     0.81380   0.10553   0.57272   0.00000  Uiso   1.00
O51    O     0.84095   0.06236   0.67280   0.00000  Uiso   1.00
C52    C     0.92246   0.15917   0.57051   0.00000  Uiso   1.00
O53    O     0.79844   0.10987   0.66880   0.00000  Uiso   1.00
O54    O     0.80086   0.19214   0.62239   0.00000  Uiso   1.00
O55    O     0.79152   0.14095   0.58199   0.00000  Uiso   1.00
C56    C     0.90721   0.16451   0.68673   0.00000  Uiso   1.00
C57    C     0.77921   0.17495   0.59516   0.00000  Uiso   1.00
C58    C     0.80785   0.07794   0.68482   0.00000  Uiso   1.00
C59    C     0.82528   0.07087   0.55959   0.00000  Uiso   1.00
Gd60   Gd    0.36397   0.40719   0.35798   0.00000  Uiso   1.00
Gd61   Gd    0.39481   0.39304   0.40392   0.00000  Uiso   1.00
O62    O     0.35697   0.44684   0.41825   0.00000  Uiso   1.00
O63    O     0.35640   0.44502   0.41702   0.00000  Uiso   1.00
O64    O     0.30793   0.36550   0.37472   0.00000  Uiso   1.00
O65    O     0.34031   0.34914   0.42491   0.00000  Uiso   1.00
O66    O     0.35455   0.38855   0.29357   0.00000  Uiso   1.00
O67    O     0.32539   0.43864   0.32039   0.00000  Uiso   1.00
O68    O     0.38602   0.35710   0.31628   0.00000  Uiso   1.00
C69    C     0.33187   0.41714   0.28897   0.00000  Uiso   1.00
O70    O     0.42020   0.34164   0.36747   0.00000  Uiso   1.00
O71    O     0.41663   0.45087   0.33708   0.00000  Uiso   1.00
C72    C     0.30743   0.34597   0.40595   0.00000  Uiso   1.00
O73    O     0.45031   0.43801   0.38755   0.00000  Uiso   1.00
O74    O     0.42670   0.38250   0.45885   0.00000  Uiso   1.00
O75    O     0.43653   0.34378   0.40736   0.00000  Uiso   1.00
C76    C     0.32061   0.43938   0.43418   0.00000  Uiso   1.00
C77    C     0.44513   0.35280   0.44327   0.00000  Uiso   1.00
C78    C     0.44851   0.45804   0.35680   0.00000  Uiso   1.00
C79    C     0.40971   0.33389   0.33156   0.00000  Uiso   1.00
C80    C     0.46374   0.77086   0.01293   0.00000  Uiso   1.00
C81    C     0.49796   0.79003   0.99070   0.00000  Uiso   1.00
C82    C     0.53411   0.80638   0.00938   0.00000  Uiso   1.00
C83    C     0.53654   0.80338   0.05036   0.00000  Uiso   1.00
C84    C     0.50321   0.78289   0.07218   0.00000  Uiso   1.00
C85    C     0.46732   0.76663   0.05372   0.00000  Uiso   1.00
C86    C     0.42354   0.75732   0.99486   0.00000  Uiso   1.00
N87    N     0.39107   0.73968   0.01743   0.00000  Uiso   1.00
N88    N     0.35439   0.72869   0.00223   0.00000  Uiso   1.00
C89    C     0.34837   0.73499   0.96377   0.00000  Uiso   1.00
N90    N     0.38084   0.75256   0.94100   0.00000  Uiso   1.00
N91    N     0.41768   0.76361   0.95627   0.00000  Uiso   1.00
C92    C     0.30737   0.72161   0.94721   0.00000  Uiso   1.00
C93    C     0.30017   0.72671   0.90721   0.00000  Uiso   1.00
C94    C     0.26230   0.71078   0.89148   0.00000  Uiso   1.00
C95    C     0.23131   0.68919   0.91544   0.00000  Uiso   1.00
C96    C     0.23777   0.68587   0.95570   0.00000  Uiso   1.00
C97    C     0.27522   0.70196   0.97143   0.00000  Uiso   1.00
H98    H     0.49626   0.79377   0.95925   0.00000  Uiso   1.00
H99    H     0.55921   0.82307   0.99229   0.00000  Uiso   1.00
H100   H     0.50413   0.78135   0.10404   0.00000  Uiso   1.00
H101   H     0.44171   0.75228   0.07191   0.00000  Uiso   1.00
H102   H     0.32423   0.74177   0.88776   0.00000  Uiso   1.00
H103   H     0.25818   0.71322   0.86018   0.00000  Uiso   1.00
H104   H     0.21421   0.66957   0.97481   0.00000  Uiso   1.00
H105   H     0.27933   0.69770   0.00241   0.00000  Uiso   1.00
C106   C     0.45914   0.22864   0.27182   0.00000  Uiso   1.00
C107   C     0.45675   0.23379   0.31327   0.00000  Uiso   1.00
C108   C     0.43962   0.26735   0.33192   0.00000  Uiso   1.00
C109   C     0.42499   0.29743   0.30985   0.00000  Uiso   1.00
C110   C     0.42620   0.29207   0.26831   0.00000  Uiso   1.00
C111   C     0.44313   0.25779   0.24939   0.00000  Uiso   1.00
C112   C     0.47826   0.19267   0.25313   0.00000  Uiso   1.00
N113   N     0.47021   0.17815   0.21565   0.00000  Uiso   1.00
N114   N     0.48604   0.14438   0.20030   0.00000  Uiso   1.00
C115   C     0.51074   0.12398   0.22168   0.00000  Uiso   1.00
N116   N     0.51921   0.13894   0.25885   0.00000  Uiso   1.00
N117   N     0.50324   0.17243   0.27423   0.00000  Uiso   1.00
C118   C     0.52714   0.08547   0.20566   0.00000  Uiso   1.00
C119   C     0.55987   0.07012   0.22365   0.00000  Uiso   1.00
C120   C     0.57453   1.03308   0.20950   0.00000  Uiso   1.00
C121   C     0.55644   1.01038   0.17738   0.00000  Uiso   1.00
C122   C     0.52369   0.02556   0.15943   0.00000  Uiso   1.00
C123   C     0.50938   0.06287   0.17322   0.00000  Uiso   1.00
H124   H     0.46789   0.21160   0.33155   0.00000  Uiso   1.00
H125   H     0.43769   0.26957   0.36397   0.00000  Uiso   1.00
H126   H     0.41487   0.31463   0.25061   0.00000  Uiso   1.00
H127   H     0.44445   0.25453   0.21734   0.00000  Uiso   1.00
H128   H     0.57424   0.08678   0.24872   0.00000  Uiso   1.00
H129   H     0.59965   1.02197   0.22396   0.00000  Uiso   1.00
H130   H     0.50919   0.00864   0.13455   0.00000  Uiso   1.00
H131   H     0.48397   0.07363   0.15887   0.00000  Uiso   1.00
C132   C     0.67274   0.22465   0.55599   0.00000  Uiso   1.00
C133   C     0.69915   0.24776   0.58241   0.00000  Uiso   1.00
C134   C     0.73401   0.23167   0.59479   0.00000  Uiso   1.00
C135   C     0.74310   0.19218   0.58107   0.00000  Uiso   1.00
C136   C     0.71672   0.16897   0.55486   0.00000  Uiso   1.00
C137   C     0.68194   0.18506   0.54232   0.00000  Uiso   1.00
C138   C     0.63620   0.24194   0.54228   0.00000  Uiso   1.00
N139   N     0.61348   0.22172   0.51338   0.00000  Uiso   1.00
N140   N     0.58139   0.23779   0.50009   0.00000  Uiso   1.00
C141   C     0.57050   0.27467   0.51522   0.00000  Uiso   1.00
N142   N     0.59292   0.29474   0.54443   0.00000  Uiso   1.00
N143   N     0.62514   0.27870   0.55766   0.00000  Uiso   1.00
C144   C     0.53625   0.29334   0.49871   0.00000  Uiso   1.00
C145   C     0.52034   0.32815   0.51758   0.00000  Uiso   1.00
C146   C     0.48956   0.34687   0.50032   0.00000  Uiso   1.00
C147   C     0.47465   0.33137   0.46373   0.00000  Uiso   1.00
C148   C     0.48992   0.29615   0.44541   0.00000  Uiso   1.00
C149   C     0.52018   0.27721   0.46277   0.00000  Uiso   1.00
H150   H     0.69303   0.27837   0.59345   0.00000  Uiso   1.00
H151   H     0.75381   0.25013   0.61519   0.00000  Uiso   1.00
H152   H     0.72255   0.13813   0.54451   0.00000  Uiso   1.00
H153   H     0.66213   0.16632   0.52211   0.00000  Uiso   1.00
H154   H     0.53199   0.34121   0.54540   0.00000  Uiso   1.00
H155   H     0.47825   0.37403   0.51503   0.00000  Uiso   1.00
H156   H     0.47905   0.28355   0.41724   0.00000  Uiso   1.00
H157   H     0.53177   0.25055   0.44735   0.00000  Uiso   1.00
C158   C     0.74928   0.02957   0.79250   0.00000  Uiso   1.00
C159   C     0.74093   0.06835   0.78053   0.00000  Uiso   1.00
C160   C     0.75756   0.08329   0.74409   0.00000  Uiso   1.00
C161   C     0.78287   0.05972   0.71901   0.00000  Uiso   1.00
C162   C     0.78903   0.02005   0.72999   0.00000  Uiso   1.00
C163   C     0.77257   1.00522   0.76618   0.00000  Uiso   1.00
C164   C     0.73584   0.01503   0.83272   0.00000  Uiso   1.00
N165   N     0.74863   0.97987   0.84509   0.00000  Uiso   1.00
N166   N     0.73808   0.96714   0.88141   0.00000  Uiso   1.00
C167   C     0.71423   0.98897   0.90716   0.00000  Uiso   1.00
N168   N     0.70124   0.02413   0.89483   0.00000  Uiso   1.00
N169   N     0.71193   0.03697   0.85844   0.00000  Uiso   1.00
C170   C     0.70241   0.97412   0.94758   0.00000  Uiso   1.00
C171   C     0.67297   0.99266   0.97271   0.00000  Uiso   1.00
C172   C     0.66033   0.97679   0.00977   0.00000  Uiso   1.00
C173   C     0.67701   0.94218   0.02265   0.00000  Uiso   1.00
C174   C     0.70734   0.92452   0.99799   0.00000  Uiso   1.00
C175   C     0.71984   0.94023   0.96103   0.00000  Uiso   1.00
H176   H     0.72289   0.08782   0.79994   0.00000  Uiso   1.00
H177   H     0.75242   0.11407   0.73656   0.00000  Uiso   1.00
H178   H     0.80793   1.00090   0.71114   0.00000  Uiso   1.00
H179   H     0.77927   0.97501   0.77396   0.00000  Uiso   1.00
H180   H     0.65892   0.01883   0.96337   0.00000  Uiso   1.00
H181   H     0.63673   0.99100   0.02789   0.00000  Uiso   1.00
H182   H     0.72068   0.89768   1.00666   0.00000  Uiso   1.00
H183   H     0.74277   0.92523   0.94272   0.00000  Uiso   1.00
C184   C     0.78108   0.02047   0.44686   0.00000  Uiso   1.00
C185   C     0.76918   0.05783   0.46389   0.00000  Uiso   1.00
C186   C     0.78267   0.07308   0.50077   0.00000  Uiso   1.00
C187   C     0.80828   0.05146   0.52220   0.00000  Uiso   1.00
C188   C     0.81976   1.01362   0.50569   0.00000  Uiso   1.00
C189   C     0.80625   0.99825   0.46841   0.00000  Uiso   1.00
C190   C     0.76786   0.00599   0.40649   0.00000  Uiso   1.00
N191   N     0.77891   0.97017   0.38874   0.00000  Uiso   1.00
N192   N     0.76728   0.95804   0.35233   0.00000  Uiso   1.00
C193   C     0.74421   0.98126   0.33203   0.00000  Uiso   1.00
N194   N     0.73323   0.01700   0.34985   0.00000  Uiso   1.00
N195   N     0.74482   0.02908   0.38614   0.00000  Uiso   1.00
C196   C     0.73024   0.96768   0.29172   0.00000  Uiso   1.00
C197   C     0.70467   0.99122   0.27218   0.00000  Uiso   1.00
C198   C     0.68854   0.97705   0.23586   0.00000  Uiso   1.00
C199   C     0.69767   0.93907   0.21791   0.00000  Uiso   1.00
C200   C     0.72489   0.91646   0.23638   0.00000  Uiso   1.00
C201   C     0.74090   0.93053   0.27289   0.00000  Uiso   1.00
H202   H     0.74996   0.07599   0.44839   0.00000  Uiso   1.00
H203   H     0.77398   0.10273   0.51181   0.00000  Uiso   1.00
H204   H     0.83987   0.99639   0.52113   0.00000  Uiso   1.00
H205   H     0.81606   0.96934   0.45622   0.00000  Uiso   1.00
H206   H     0.69609   0.02020   0.28544   0.00000  Uiso   1.00
H207   H     0.66796   0.99536   0.22235   0.00000  Uiso   1.00
H208   H     0.73239   0.88694   0.22349   0.00000  Uiso   1.00
H209   H     0.76071   0.91170   0.28686   0.00000  Uiso   1.00
C210   C     0.29056   0.48160   0.55262   0.00000  Uiso   1.00
C211   C     0.32848   0.49705   0.53382   0.00000  Uiso   1.00
C212   C     0.33798   0.48575   0.49419   0.00000  Uiso   1.00
C213   C     0.30935   0.45925   0.47264   0.00000  Uiso   1.00
C214   C     0.27066   0.44576   0.49067   0.00000  Uiso   1.00
C215   C     0.26131   0.45675   0.53033   0.00000  Uiso   1.00
C216   C     0.28200   0.49032   0.59544   0.00000  Uiso   1.00
N217   N     0.25029   0.46822   0.61552   0.00000  Uiso   1.00
N218   N     0.24223   0.47633   0.65401   0.00000  Uiso   1.00
C219   C     0.26565   0.50678   0.67403   0.00000  Uiso   1.00
N220   N     0.29765   0.52857   0.65404   0.00000  Uiso   1.00
N221   N     0.30582   0.52033   0.61558   0.00000  Uiso   1.00
C222   C     0.25344   0.51923   0.71530   0.00000  Uiso   1.00
C223   C     0.26781   0.55864   0.73095   0.00000  Uiso   1.00
C224   C     0.24943   0.57438   0.76594   0.00000  Uiso   1.00
C225   C     0.21719   0.55060   0.78635   0.00000  Uiso   1.00
C226   C     0.20573   0.50973   0.77312   0.00000  Uiso   1.00
C227   C     0.22350   0.49421   0.73757   0.00000  Uiso   1.00
H228   H     0.35155   0.51644   0.55016   0.00000  Uiso   1.00
H229   H     0.36826   0.49629   0.48102   0.00000  Uiso   1.00
H230   H     0.24838   0.42500   0.47458   0.00000  Uiso   1.00
H231   H     0.23160   0.44485   0.54380   0.00000  Uiso   1.00
H232   H     0.29089   0.57863   0.71464   0.00000  Uiso   1.00
H233   H     0.25841   0.60616   0.77562   0.00000  Uiso   1.00
H234   H     0.18037   0.49126   0.78817   0.00000  Uiso   1.00
H235   H     0.21197   0.46363   0.72636   0.00000  Uiso   1.00
C236   C     0.22505   0.50907   0.04308   0.00000  Uiso   1.00
C237   C     0.23502   0.55050   0.03337   0.00000  Uiso   1.00
C238   C     0.21610   0.56634   1.00246   0.00000  Uiso   1.00
C239   C     0.18641   0.54123   0.98111   0.00000  Uiso   1.00
C240   C     0.17667   0.49973   0.99045   0.00000  Uiso   1.00
C241   C     0.19605   0.48369   0.02102   0.00000  Uiso   1.00
C242   C     0.24331   0.49333   0.07737   0.00000  Uiso   1.00
N243   N     0.24361   0.45215   0.08160   0.00000  Uiso   1.00
N244   N     0.25857   0.43839   0.11366   0.00000  Uiso   1.00
C245   C     0.27342   0.46534   0.14279   0.00000  Uiso   1.00
N246   N     0.27332   0.50640   0.13834   0.00000  Uiso   1.00
N247   N     0.25872   0.52012   0.10627   0.00000  Uiso   1.00
C248   C     0.28739   0.45095   0.17980   0.00000  Uiso   1.00
C249   C     0.28402   0.47590   0.21460   0.00000  Uiso   1.00
C250   C     0.29767   0.46392   0.24987   0.00000  Uiso   1.00
C251   C     0.31565   0.42692   0.25124   0.00000  Uiso   1.00
C252   C     0.31895   0.40153   0.21658   0.00000  Uiso   1.00
C253   C     0.30445   0.41330   0.18104   0.00000  Uiso   1.00
H254   H     0.25743   0.57075   0.04973   0.00000  Uiso   1.00
H255   H     0.22438   0.59833   0.99555   0.00000  Uiso   1.00
H256   H     0.15408   0.47970   0.97409   0.00000  Uiso   1.00
H257   H     0.18762   0.45174   0.02796   0.00000  Uiso   1.00
H258   H     0.27060   0.50480   0.21467   0.00000  Uiso   1.00
H259   H     0.29472   0.48421   0.27608   0.00000  Uiso   1.00
H260   H     0.33282   0.37292   0.21696   0.00000  Uiso   1.00
H261   H     0.30739   0.39358   0.15448   0.00000  Uiso   1.00
C262   C     0.18989   0.29027   0.45319   0.00000  Uiso   1.00
C263   C     0.19351   0.30736   0.41582   0.00000  Uiso   1.00
C264   C     0.23212   0.32343   0.39981   0.00000  Uiso   1.00
C265   C     0.26813   0.32319   0.42089   0.00000  Uiso   1.00
C266   C     0.26483   0.30508   0.45782   0.00000  Uiso   1.00
C267   C     0.22608   0.28856   0.47374   0.00000  Uiso   1.00
C268   C     0.14858   0.27428   0.47043   0.00000  Uiso   1.00
N269   N     0.14535   0.24956   0.50166   0.00000  Uiso   1.00
N270   N     0.10833   0.23376   0.51615   0.00000  Uiso   1.00
C271   C     0.07296   0.24231   0.50036   0.00000  Uiso   1.00
N272   N     0.07599   0.26770   0.46962   0.00000  Uiso   1.00
N273   N     0.11314   0.28330   0.45491   0.00000  Uiso   1.00
C274   C     0.03263   0.22132   0.51466   0.00000  Uiso   1.00
C275   C     0.99571   0.24040   0.51667   0.00000  Uiso   1.00
C276   C     0.95871   0.22014   0.53352   0.00000  Uiso   1.00
C277   C     0.95824   0.18025   0.54745   0.00000  Uiso   1.00
C278   C     0.99495   0.16083   0.54307   0.00000  Uiso   1.00
C279   C     0.03155   0.18120   0.52744   0.00000  Uiso   1.00
H280   H     0.16640   0.30864   0.39898   0.00000  Uiso   1.00
H281   H     0.23351   0.33720   0.37127   0.00000  Uiso   1.00
H282   H     0.29194   0.30472   0.47486   0.00000  Uiso   1.00
H283   H     0.22435   0.27540   0.50259   0.00000  Uiso   1.00
H284   H    -0.00412   0.27140   0.50670   0.00000  Uiso   1.00
H285   H     0.93102   0.23589   0.53649   0.00000  Uiso   1.00
H286   H     0.99618   0.13013   0.55328   0.00000  Uiso   1.00
H287   H     0.05930   0.16547   0.52570   0.00000  Uiso   1.00
C288   C     0.95661   0.91883   0.69949   0.00000  Uiso   1.00
C289   C     0.97487   0.93725   0.66518   0.00000  Uiso   1.00
C290   C     0.95888   0.97080   0.65045   0.00000  Uiso   1.00
C291   C     0.92415  -0.01340   0.66950   0.00000  Uiso   1.00
C292   C     0.90527  -0.03198   0.70342   0.00000  Uiso   1.00
C293   C     0.92144   0.93440   0.71839   0.00000  Uiso   1.00
C294   C     0.97517   0.88436   0.71565   0.00000  Uiso   1.00
N295   N     0.96014   0.86784   0.75030   0.00000  Uiso   1.00
N296   N     0.97800   0.83768   0.76516   0.00000  Uiso   1.00
C297   C     0.01160   0.82286   0.74598   0.00000  Uiso   1.00
N298   N     0.02639   0.83924   0.71124   0.00000  Uiso   1.00
N299   N     0.00857   0.86933   0.69642   0.00000  Uiso   1.00
C300   C     0.03232   0.79016   0.76280   0.00000  Uiso   1.00
C301   C     0.06764   0.77585   0.74299   0.00000  Uiso   1.00
C302   C     0.08768   0.74545   0.75903   0.00000  Uiso   1.00
C303   C     0.07285   0.72877   0.79518   0.00000  Uiso   1.00
C304   C     0.03750   0.74282   0.81494   0.00000  Uiso   1.00
C305   C     0.01741   0.77322   0.79892   0.00000  Uiso   1.00
H306   H     1.00198   0.92620   0.64986   0.00000  Uiso   1.00
H307   H     0.97401   0.98463   0.62423   0.00000  Uiso   1.00
H308   H     0.87862  -0.02003   0.71877   0.00000  Uiso   1.00
H309   H     0.90668   0.92095   0.74493   0.00000  Uiso   1.00
H310   H     0.07992   0.78813   0.71506   0.00000  Uiso   1.00
H311   H     0.11476   0.73497   0.74309   0.00000  Uiso   1.00
H312   H     0.02511   0.73003   0.84260   0.00000  Uiso   1.00
H313   H    -0.00982   0.78337   0.81482   0.00000  Uiso   1.00
C314   C     0.00496   0.44345   0.78083   0.00000  Uiso   1.00
C315   C     0.03273   0.46793   0.75588   0.00000  Uiso   1.00
C316   C     0.04941   0.50750   0.76898   0.00000  Uiso   1.00
C317   C     0.03885   0.52287   0.80734   0.00000  Uiso   1.00
C318   C     0.00855   0.49989   0.83084   0.00000  Uiso   1.00
C319   C    -0.00850   0.46076   0.81763   0.00000  Uiso   1.00
C320   C     0.99300   0.39909   0.77053   0.00000  Uiso   1.00
N321   N     0.96249   0.37704   0.79218   0.00000  Uiso   1.00
N322   N     0.95325   0.33670   0.78451   0.00000  Uiso   1.00
C323   C     0.97449   0.31646   0.75521   0.00000  Uiso   1.00
N324   N     1.00502   0.33850   0.73354   0.00000  Uiso   1.00
N325   N     0.01417   0.37892   0.74112   0.00000  Uiso   1.00
C326   C     0.96229   0.27211   0.74499   0.00000  Uiso   1.00
C327   C     0.98611   0.25012   0.71686   0.00000  Uiso   1.00
C328   C     0.97044   0.21107   0.70160   0.00000  Uiso   1.00
C329   C     0.93057   0.19376   0.71390   0.00000  Uiso   1.00
C330   C     0.90860   0.21381   0.74472   0.00000  Uiso   1.00
C331   C     0.92443   0.25245   0.76040   0.00000  Uiso   1.00
H332   H     0.04331   0.45567   0.72713   0.00000  Uiso   1.00
H333   H     0.07330   0.52437   0.75063   0.00000  Uiso   1.00
H334   H     0.00036   0.51100   0.86073   0.00000  Uiso   1.00
H335   H     0.97003   0.44298   0.83755   0.00000  Uiso   1.00
H336   H     1.01565   0.26415   0.70476   0.00000  Uiso   1.00
H337   H     0.98752   0.19654   0.67726   0.00000  Uiso   1.00
H338   H     0.87751   0.20122   0.75421   0.00000  Uiso   1.00
H339   H     0.90544   0.26821   0.78236   0.00000  Uiso   1.00
C340   C     0.82388   0.77219   0.03845   0.00000  Uiso   1.00
C341   C     0.81363   0.80980   0.02532   0.00000  Uiso   1.00
C342   C     0.77719   0.82587   0.03987   0.00000  Uiso   1.00
C343   C     0.75034   0.80463   0.06779   0.00000  Uiso   1.00
C344   C     0.76037   0.76695   0.08059   0.00000  Uiso   1.00
C345   C     0.79666   0.75092   0.06612   0.00000  Uiso   1.00
C346   C     0.86261   0.75509   1.02351   0.00000  Uiso   1.00
N347   N     0.87201   0.71845   1.03583   0.00000  Uiso   1.00
N348   N     0.90643   0.70270   1.02197   0.00000  Uiso   1.00
C349   C     0.93302   0.72302   0.99528   0.00000  Uiso   1.00
N350   N     0.92373   0.75978   0.98317   0.00000  Uiso   1.00
N351   N     0.88932   0.77550   0.99700   0.00000  Uiso   1.00
C352   C     0.97034   0.70478   0.97820   0.00000  Uiso   1.00
C353   C    -0.00287   0.72624   0.95034   0.00000  Uiso   1.00
C354   C     0.03012   0.70794   0.93132   0.00000  Uiso   1.00
C355   C     0.03725   0.66773   0.93961   0.00000  Uiso   1.00
C356   C     0.01196   0.64688   0.96889   0.00000  Uiso   1.00
C357   C     0.97867   0.66521   0.98798   0.00000  Uiso   1.00
H358   H     0.83385   0.82698   1.00396   0.00000  Uiso   1.00
H359   H     0.77034   0.85509   0.02968   0.00000  Uiso   1.00
H360   H     0.74024   0.74992   0.10213   0.00000  Uiso   1.00
H361   H     0.80342   0.72189   0.07685   0.00000  Uiso   1.00
H362   H    -0.00787   0.75693   0.94244   0.00000  Uiso   1.00
H363   H     0.04976   0.72513   0.90956   0.00000  Uiso   1.00
H364   H     0.01688   0.61587   0.97587   0.00000  Uiso   1.00
H365   H     0.95882   0.64792   1.00953   0.00000  Uiso   1.00
C366   C     0.53827   0.73061   0.25989   0.00000  Uiso   1.00
C367   C     0.57075   0.75960   0.27250   0.00000  Uiso   1.00
C368   C     0.58208   0.79544   0.25167   0.00000  Uiso   1.00
C369   C     0.56036   0.80338   0.21876   0.00000  Uiso   1.00
C370   C     0.52573   0.77630   0.20831   0.00000  Uiso   1.00
C371   C     0.51487   0.74010   0.22857   0.00000  Uiso   1.00
C372   C     0.53171   0.68886   0.27589   0.00000  Uiso   1.00
N373   N     0.51498   0.65648   0.25307   0.00000  Uiso   1.00
N374   N     0.51056   0.61842   0.26608   0.00000  Uiso   1.00
C375   C     0.52266   0.61094   0.30250   0.00000  Uiso   1.00
N376   N     0.53936   0.64334   0.32551   0.00000  Uiso   1.00
N377   N     0.54418   0.68150   0.31228   0.00000  Uiso   1.00
C378   C     0.51461   0.56862   0.31723   0.00000  Uiso   1.00
C379   C     0.51149   0.56165   0.35808   0.00000  Uiso   1.00
C380   C     0.49441   0.52311   0.37161   0.00000  Uiso   1.00
C381   C     0.48034   0.49132   0.34439   0.00000  Uiso   1.00
C382   C     0.48789   0.49697   0.30369   0.00000  Uiso   1.00
C383   C     0.50493   0.53514   0.29024   0.00000  Uiso   1.00
H384   H     0.58940   0.75311   0.29643   0.00000  Uiso   1.00
H385   H     0.60962   0.81547   0.25945   0.00000  Uiso   1.00
H386   H     0.50943   0.78121   0.18224   0.00000  Uiso   1.00
H387   H     0.48952   0.71845   0.21831   0.00000  Uiso   1.00
H388   H     0.51911   0.58675   0.37959   0.00000  Uiso   1.00
H389   H     0.48852   0.51954   0.40317   0.00000  Uiso   1.00
H390   H     0.47745   0.47277   0.28219   0.00000  Uiso   1.00
H391   H     0.50791   0.53911   0.25857   0.00000  Uiso   1.00
loop_
_geom_bond_atom_site_label_1
_geom_bond_atom_site_label_2
_geom_bond_distance
_geom_bond_site_symmetry_2
_ccdc_geom_bond_type
Gd0    O3      2.253   .     S
Gd0    O4      2.202   .     S
Gd0    O6      2.248   .     S
Gd0    O7      2.245   .     S
Gd0    O8      2.239   .     S
Gd0    O11     2.253   .     S
Gd1    O2      2.202   .     S
Gd1    O5      2.241   .     S
Gd1    O10     2.244   .     S
Gd1    O13     2.231   .     S
Gd1    O14     2.237   .     S
Gd1    O15     2.250   .     S
O2     C16     1.264   .     A
O3     C16     1.274   .     A
O4     C12     1.265   .     A
O5     C12     1.271   .     A
O6     C9      1.271   .     A
O7     C9      1.264   .     A
O8     C19     1.274   .     A
C9     C303    1.473   .     S
O10    C19     1.279   .     A
O11    C18     1.280   .     A
C12    C225    1.463   .     S
O13    C18     1.271   .     A
O14    C17     1.262   .     A
O15    C17     1.271   .     A
C16    C317    1.471   .     S
C17    C239    1.470   .     S
C18    C355    1.477   .     S
C19    C95     1.475   .     S
Gd20   O23     2.243   .     S
Gd20   O24     2.214   .     S
Gd20   O26     2.266   .     S
Gd20   O27     2.236   .     S
Gd20   O28     2.239   .     S
Gd20   O31     2.245   .     S
Gd21   O22     2.217   .     S
Gd21   O25     2.244   .     S
Gd21   O30     2.251   .     S
Gd21   O33     2.244   .     S
Gd21   O34     2.239   .     S
Gd21   O35     2.264   .     S
O22    C36     1.266   .     A
O23    C36     1.272   .     A
O24    C32     1.266   .     A
O25    C32     1.273   .     A
O26    C29     1.271   .     A
O27    C29     1.260   .     A
O28    C39     1.274   .     A
C29    C343    1.477   .     S
O30    C39     1.280   .     A
O31    C38     1.279   .     A
C32    C369    1.466   .     S
O33    C38     1.275   .     A
O34    C37     1.260   .     A
O35    C37     1.271   .     A
C36    C83     1.467   .     S
C37    C121    1.477   .     S
C38    C173    1.488   .     S
C39    C199    1.487   .     S
Gd40   O43     2.253   .     S
Gd40   O44     2.190   .     S
Gd40   O46     2.259   .     S
Gd40   O47     2.229   .     S
Gd40   O48     2.246   .     S
Gd40   O51     2.237   .     S
Gd41   O42     2.201   .     S
Gd41   O45     2.263   .     S
Gd41   O50     2.252   .     S
Gd41   O53     2.252   .     S
Gd41   O54     2.238   .     S
Gd41   O55     2.251   .     S
O42    C56     1.263   .     A
O43    C56     1.273   .     A
O44    C52     1.263   .     A
O45    C52     1.276   .     A
O46    C49     1.270   .     A
O47    C49     1.259   .     A
O48    C59     1.274   .     A
C49    C291    1.469   .     S
O50    C59     1.280   .     A
O51    C58     1.277   .     A
C52    C277    1.484   .     S
O53    C58     1.275   .     A
O54    C57     1.261   .     A
O55    C57     1.271   .     A
C56    C329    1.468   .     S
C57    C135    1.471   .     S
C58    C161    1.484   .     S
C59    C187    1.491   .     S
Gd60   O63     2.305   .     S
Gd60   O64     2.211   .     S
Gd60   O66     2.259   .     S
Gd60   O67     2.205   .     S
Gd60   O68     2.252   .     S
Gd60   O71     2.208   .     S
Gd61   O62     2.270   .     S
Gd61   O65     2.254   .     S
Gd61   O70     2.232   .     S
Gd61   O73     2.254   .     S
Gd61   O74     2.241   .     S
Gd61   O75     2.229   .     S
O62    C76     1.272   .     A
O63    C76     1.267   .     A
O64    C72     1.261   .     A
O65    C72     1.270   .     A
O66    C69     1.274   .     A
O67    C69     1.262   .     A
O68    C79     1.287   .     A
C69    C251    1.473   .     S
O70    C79     1.285   .     A
O71    C78     1.258   .     A
C72    C265    1.479   .     S
O73    C78     1.266   .     A
O74    C77     1.271   .     A
O75    C77     1.274   .     A
C76    C213    1.467   .     S
C77    C147    1.474   .     S
C78    C381    1.473   .     S
C79    C109    1.482   .     S
C80    C85     1.407   .     A
C80    C81     1.410   1_554 A
C80    C86     1.487   1_554 S
C81    H98     1.083   .     S
C81    C80     1.410   1_556 A
C81    C82     1.405   1_556 A
C82    C83     1.402   .     A
C82    C81     1.405   1_554 A
C82    H99     1.083   1_554 S
C83    C84     1.400   .     A
C84    C85     1.394   .     A
C84    H100    1.084   .     S
C85    H101    1.083   .     S
C86    N91     1.360   .     A
C86    C80     1.487   1_556 S
C86    N87     1.357   1_556 A
N87    N88     1.330   .     A
N87    C86     1.357   1_554 A
N88    C89     1.357   1_554 A
C89    N90     1.360   .     A
C89    C92     1.486   .     S
C89    N88     1.357   1_556 A
N90    N91     1.336   .     A
C92    C93     1.409   .     A
C92    C97     1.406   .     A
C93    C94     1.404   .     A
C93    H102    1.083   .     S
C94    C95     1.404   .     A
C94    H103    1.083   .     S
C95    C96     1.402   .     A
C96    C97     1.393   .     A
C96    H104    1.083   .     S
C97    H105    1.083   1_556 S
H99    C82     1.083   1_556 S
H105   C97     1.083   1_554 S
C106   C107    1.402   .     A
C106   C111    1.410   .     A
C106   C112    1.484   .     S
C107   C108    1.389   .     A
C107   H124    1.083   .     S
C108   C109    1.405   .     A
C108   H125    1.081   .     S
C109   C110    1.405   .     A
C110   C111    1.408   .     A
C110   H126    1.083   .     S
C111   H127    1.082   .     S
C112   N113    1.359   .     A
C112   N117    1.359   .     A
N113   N114    1.335   .     A
N114   C115    1.361   .     A
C115   N116    1.356   .     A
C115   C118    1.483   .     S
N116   N117    1.330   .     A
C118   C119    1.408   .     A
C118   C123    1.405   .     A
C119   H128    1.083   .     S
C119   C120    1.399   1_545 A
C120   C121    1.402   .     A
C120   H129    1.082   .     S
C120   C119    1.399   1_565 A
C121   C122    1.406   1_565 A
C122   C123    1.399   .     A
C122   H130    1.083   .     S
C122   C121    1.406   1_545 A
C123   H131    1.083   .     S
C132   C133    1.406   .     A
C132   C137    1.407   .     A
C132   C138    1.479   .     S
C133   C134    1.396   .     A
C133   H150    1.083   .     S
C134   C135    1.403   .     A
C134   H151    1.083   .     S
C135   C136    1.402   .     A
C136   C137    1.396   .     A
C136   H152    1.081   .     S
C137   H153    1.083   .     S
C138   N139    1.357   .     A
C138   N143    1.359   .     A
N139   N140    1.330   .     A
N140   C141    1.358   .     A
C141   N142    1.358   .     A
C141   C144    1.479   .     S
N142   N143    1.332   .     A
C144   C145    1.407   .     A
C144   C149    1.404   .     A
C145   C146    1.400   .     A
C145   H154    1.083   .     S
C146   C147    1.404   .     A
C146   H155    1.083   .     S
C147   C148    1.402   .     A
C148   C149    1.392   .     A
C148   H156    1.080   .     S
C149   H157    1.083   .     S
C158   C159    1.409   .     A
C158   C164    1.490   .     S
C158   C163    1.406   1_545 A
C159   C160    1.405   .     A
C159   H176    1.082   .     S
C160   C161    1.406   .     A
C160   H177    1.083   .     S
C161   C162    1.405   .     A
C162   C163    1.395   1_545 A
C162   H178    1.082   1_545 S
C163   H179    1.083   .     S
C163   C158    1.406   1_565 A
C163   C162    1.395   1_565 A
C164   N169    1.360   .     A
C164   N165    1.358   1_545 A
N165   N166    1.331   .     A
N165   C164    1.358   1_565 A
N166   C167    1.358   .     A
C167   C170    1.489   .     S
C167   N168    1.361   1_565 A
N168   N169    1.336   .     A
N168   C167    1.361   1_545 A
C170   C171    1.408   .     A
C170   C175    1.407   .     A
C171   C172    1.404   1_556 A
C171   H180    1.083   1_565 S
C172   C173    1.407   .     A
C172   H181    1.083   .     S
C172   C171    1.404   1_554 A
C173   C174    1.406   1_554 A
C174   C175    1.397   .     A
C174   H182    1.082   .     S
C174   C173    1.406   1_556 A
C175   H183    1.083   .     S
H178   C162    1.082   1_565 S
H180   C171    1.083   1_545 S
C184   C185    1.404   .     A
C184   C190    1.492   .     S
C184   C189    1.410   1_545 A
C185   C186    1.394   .     A
C185   H202    1.083   .     S
C186   C187    1.406   .     A
C186   H203    1.080   .     S
C187   C188    1.407   1_545 A
C188   C189    1.408   .     A
C188   H204    1.082   .     S
C188   C187    1.407   1_565 A
C189   H205    1.083   .     S
C189   C184    1.410   1_565 A
C190   N195    1.359   .     A
C190   N191    1.360   1_545 A
N191   N192    1.336   .     A
N191   C190    1.360   1_565 A
N192   C193    1.361   .     A
C193   C196    1.492   .     S
C193   N194    1.358   1_565 A
N194   N195    1.332   .     A
N194   C193    1.358   1_545 A
C196   C197    1.408   .     A
C196   C201    1.407   .     A
C197   C198    1.400   .     A
C197   H206    1.083   1_565 S
C198   C199    1.405   .     A
C198   H207    1.082   .     S
C199   C200    1.407   .     A
C200   C201    1.403   .     A
C200   H208    1.083   .     S
C201   H209    1.083   .     S
H206   C197    1.083   1_545 S
C210   C211    1.406   .     A
C210   C215    1.405   .     A
C210   C216    1.477   .     S
C211   C212    1.397   .     A
C211   H228    1.082   .     S
C212   C213    1.405   .     A
C212   H229    1.083   .     S
C213   C214    1.399   .     A
C214   C215    1.395   .     A
C214   H230    1.084   .     S
C215   H231    1.083   .     S
C216   N217    1.358   .     A
C216   N221    1.357   .     A
N217   N218    1.331   .     A
N218   C219    1.357   .     A
C219   N220    1.358   .     A
C219   C222    1.477   .     S
N220   N221    1.331   .     A
C222   C223    1.404   .     A
C222   C227    1.407   .     A
C223   C224    1.393   .     A
C223   H232    1.082   .     S
C224   C225    1.401   .     A
C224   H233    1.084   .     S
C225   C226    1.400   .     A
C226   C227    1.398   .     A
C226   H234    1.083   .     S
C227   H235    1.082   .     S
C236   C237    1.406   .     A
C236   C241    1.404   .     A
C236   C242    1.475   .     S
C237   H254    1.083   .     S
C237   C238    1.395   1_554 A
C238   C239    1.401   .     A
C238   H255    1.083   .     S
C238   C237    1.395   1_556 A
C239   C240    1.404   .     A
C240   H256    1.083   .     S
C240   C241    1.397   1_556 A
C241   H257    1.083   .     S
C241   C240    1.397   1_554 A
C242   N243    1.360   .     A
C242   N247    1.355   .     A
N243   N244    1.334   .     A
N244   C245    1.358   .     A
C245   N246    1.357   .     A
C245   C248    1.474   .     S
N246   N247    1.328   .     A
C248   C249    1.401   .     A
C248   C253    1.407   .     A
C249   C250    1.388   .     A
C249   H258    1.083   .     S
C250   C251    1.404   .     A
C250   H259    1.084   .     S
C251   C252    1.404   .     A
C252   C253    1.405   .     A
C252   H260    1.083   .     S
C253   H261    1.083   .     S
C262   C263    1.402   .     A
C262   C267    1.409   .     A
C262   C268    1.482   .     S
C263   C264    1.394   .     A
C263   H280    1.083   .     S
C264   C265    1.407   .     A
C264   H281    1.083   .     S
C265   C266    1.404   .     A
C266   C267    1.401   .     A
C266   H282    1.083   .     S
C267   H283    1.083   .     S
C268   N269    1.356   .     A
C268   N273    1.362   .     A
N269   N270    1.330   .     A
N270   C271    1.359   .     A
C271   N272    1.357   .     A
C271   C274    1.476   .     S
N272   N273    1.334   .     A
C274   C279    1.397   .     A
C274   C275    1.409   1_455 A
C275   C276    1.409   .     A
C275   C274    1.409   1_655 A
C275   H284    1.083   1_655 S
C276   C277    1.407   .     A
C276   H285    1.083   .     S
C277   C278    1.409   .     A
C278   H286    1.083   .     S
C278   C279    1.385   1_655 A
C279   H287    1.084   .     S
C279   C278    1.385   1_455 A
H284   C275    1.083   1_455 S
C288   C289    1.405   .     A
C288   C293    1.408   .     A
C288   C294    1.479   .     S
C289   C290    1.391   .     A
C289   H306    1.083   .     S
C290   H307    1.083   .     S
C290   C291    1.401   1_565 A
C291   C292    1.403   .     A
C291   C290    1.401   1_545 A
C292   H308    1.083   .     S
C292   C293    1.400   1_545 A
C293   H309    1.083   .     S
C293   C292    1.400   1_565 A
C294   N295    1.358   .     A
C294   N299    1.357   1_655 A
N295   N296    1.333   .     A
N296   C297    1.359   1_655 A
C297   N298    1.357   .     A
C297   C300    1.480   .     S
C297   N296    1.359   1_455 A
N298   N299    1.329   .     A
N299   C294    1.357   1_455 A
C300   C301    1.407   .     A
C300   C305    1.405   .     A
C301   C302    1.396   .     A
C301   H310    1.083   .     S
C302   C303    1.402   .     A
C302   H311    1.083   .     S
C303   C304    1.404   .     A
C304   C305    1.397   .     A
C304   H312    1.082   .     S
C305   H313    1.083   .     S
C314   C315    1.409   .     A
C314   C319    1.405   .     A
C314   C320    1.484   1_455 S
C315   C316    1.402   .     A
C315   H332    1.083   .     S
C316   C317    1.403   .     A
C316   H333    1.083   .     S
C317   C318    1.403   .     A
C318   C319    1.395   .     A
C318   H334    1.084   .     S
C319   H335    1.083   1_455 S
C320   N321    1.359   .     A
C320   C314    1.484   1_655 S
C320   N325    1.359   1_655 A
N321   N322    1.332   .     A
N322   C323    1.358   .     A
C323   N324    1.359   .     A
C323   C326    1.485   .     S
N324   N325    1.333   1_655 A
N325   C320    1.359   1_455 A
N325   N324    1.333   1_455 A
C326   C327    1.408   .     A
C326   C331    1.406   .     A
C327   C328    1.401   .     A
C327   H336    1.083   .     S
C328   C329    1.402   .     A
C328   H337    1.083   .     S
C329   C330    1.403   .     A
C330   C331    1.396   .     A
C330   H338    1.084   .     S
C331   H339    1.083   .     S
H335   C319    1.083   1_655 S
C340   C341    1.409   .     A
C340   C345    1.405   .     A
C340   C346    1.484   1_554 S
C341   C342    1.401   .     A
C341   H358    1.083   1_554 S
C342   C343    1.403   .     A
C342   H359    1.082   .     S
C343   C344    1.404   .     A
C344   C345    1.395   .     A
C344   H360    1.083   .     S
C345   H361    1.082   .     S
C346   N347    1.360   .     A
C346   N351    1.357   .     A
C346   C340    1.484   1_556 S
N347   N348    1.333   .     A
N348   C349    1.358   .     A
C349   N350    1.359   .     A
C349   C352    1.484   .     S
N350   N351    1.332   .     A
C352   C357    1.409   .     A
C352   C353    1.404   1_655 A
C353   C354    1.393   .     A
C353   H362    1.083   .     S
C353   C352    1.404   1_455 A
C354   C355    1.404   .     A
C354   H363    1.082   .     S
C355   C356    1.403   .     A
C356   H364    1.083   .     S
C356   C357    1.402   1_455 A
C357   H365    1.083   .     S
C357   C356    1.402   1_655 A
H358   C341    1.083   1_556 S
C366   C367    1.405   .     A
C366   C371    1.408   .     A
C366   C372    1.482   .     S
C367   C368    1.400   .     A
C367   H384    1.083   .     S
C368   C369    1.404   .     A
C368   H385    1.084   .     S
C369   C370    1.400   .     A
C370   C371    1.398   .     A
C370   H386    1.083   .     S
C371   H387    1.083   .     S
C372   N373    1.356   .     A
C372   N377    1.361   .     A
N373   N374    1.330   .     A
N374   C375    1.358   .     A
C375   N376    1.360   .     A
C375   C378    1.484   .     S
N376   N377    1.336   .     A
C378   C379    1.409   .     A
C378   C383    1.405   .     A
C379   C380    1.405   .     A
C379   H388    1.083   .     S
C380   C381    1.404   .     A
C380   H389    1.083   .     S
C381   C382    1.402   .     A
C382   C383    1.393   .     A
C382   H390    1.084   .     S
C383   H391    1.083   .     S
