data_lcy+N505+E1
_audit_creation_date              2025-01-21
_audit_creation_method            'Materials Studio'
_symmetry_space_group_name_H-M    'P1'
_symmetry_Int_Tables_number       1
_symmetry_cell_setting            triclinic
loop_
_symmetry_equiv_pos_as_xyz
  x,y,z
_cell_length_a                    34.7771
_cell_length_b                    34.0368
_cell_length_c                    30.7728
_cell_angle_alpha                 94.6219
_cell_angle_beta                  94.4776
_cell_angle_gamma                 97.5677
loop_
_atom_site_label
_atom_site_type_symbol
_atom_site_fract_x
_atom_site_fract_y
_atom_site_fract_z
_atom_site_U_iso_or_equiv
_atom_site_adp_type
_atom_site_occupancy
Yb0    Yb    0.15081   0.60805   0.81786   0.00000  Uiso   1.00
Yb1    Yb    0.10989   0.66869   0.92250   0.00000  Uiso   1.00
C2     C     0.05033   0.69000   0.94950   0.00000  Uiso   1.00
O3     O     0.09936   0.57487   0.83379   0.00000  Uiso   1.00
O4     O     0.11238   0.57915   0.76549   0.00000  Uiso   1.00
O5     O     0.12765   0.66329   0.81157   0.00000  Uiso   1.00
O6     O     0.08223   0.65698   0.85742   0.00000  Uiso   1.00
O7     O     0.18229   0.56001   0.81053   0.00000  Uiso   1.00
O8     O     0.20098   0.61686   0.78413   0.00000  Uiso   1.00
O9     O     0.16446   0.69978   0.91335   0.00000  Uiso   1.00
O10    O     0.14803   0.68808   0.97909   0.00000  Uiso   1.00
C11    C     0.09171   0.56152   0.79314   0.00000  Uiso   1.00
O12    O     0.18260   0.62566   0.88073   0.00000  Uiso   1.00
O13    O     0.13201   0.61269   0.91905   0.00000  Uiso   1.00
O14    O     0.07698   0.71519   0.93601   0.00000  Uiso   1.00
C15    C     0.09879   0.67575   0.82842   0.00000  Uiso   1.00
O16    O     0.05679   0.65347   0.94854   0.00000  Uiso   1.00
C17    C     0.20517   0.57997   0.78667   0.00000  Uiso   1.00
C18    C     0.17435   0.70229   0.95490   0.00000  Uiso   1.00
C19    C     0.16723   0.61013   0.91254   0.00000  Uiso   1.00
Yb20   Yb    0.65722   0.87709   0.09187   0.00000  Uiso   1.00
Yb21   Yb    0.56103   0.88944   0.19601   0.00000  Uiso   1.00
C22    C     0.52455   0.94549   0.21097   0.00000  Uiso   1.00
O23    O     0.64261   0.92202   0.05381   0.00000  Uiso   1.00
O24    O     0.70183   0.92381   0.08538   0.00000  Uiso   1.00
O25    O     0.64082   0.90725   0.15106   0.00000  Uiso   1.00
O26    O     0.61529   0.93025   0.20915   0.00000  Uiso   1.00
O27    O     0.68119   0.84288   0.04420   0.00000  Uiso   1.00
O28    O     0.69117   0.83444   0.11401   0.00000  Uiso   1.00
O29    O     0.57322   0.84118   0.22987   0.00000  Uiso   1.00
O30    O     0.51568   0.84160   0.19477   0.00000  Uiso   1.00
C31    C     0.67850   0.93835   0.05816   0.00000  Uiso   1.00
O32    O     0.60226   0.83547   0.08139   0.00000  Uiso   1.00
O33    O     0.58408   0.86240   0.14071   0.00000  Uiso   1.00
O34    O     0.53403   0.92351   0.24135   0.00000  Uiso   1.00
C35    C     0.64462   0.92978   0.18654   0.00000  Uiso   1.00
O36    O     0.53357   0.93548   0.17207   0.00000  Uiso   1.00
C37    C     0.69879   0.82569   0.07420   0.00000  Uiso   1.00
C38    C     0.53895   0.82253   0.21713   0.00000  Uiso   1.00
C39    C     0.57499   0.84002   0.10587   0.00000  Uiso   1.00
Yb40   Yb    0.91768   0.06704   0.65649   0.00000  Uiso   1.00
Yb41   Yb    0.87741   0.16077   0.59313   0.00000  Uiso   1.00
C42    C     0.81813   0.18803   0.56833   0.00000  Uiso   1.00
O43    O     0.86855   0.08567   0.68318   0.00000  Uiso   1.00
O44    O     0.87232   0.02240   0.66856   0.00000  Uiso   1.00
O45    O     0.89405   0.06454   0.58808   0.00000  Uiso   1.00
O46    O     0.84669   0.10212   0.59032   0.00000  Uiso   1.00
O47    O     0.94755   0.05379   0.71456   0.00000  Uiso   1.00
O48    O     0.96268   0.03206   0.64984   0.00000  Uiso   1.00
O49    O     0.92755   0.15014   0.56289   0.00000  Uiso   1.00
O50    O     0.91917   0.21077   0.58636   0.00000  Uiso   1.00
C51    C     0.85412   0.04936   0.68631   0.00000  Uiso   1.00
O52    O     0.95684   0.12315   0.65816   0.00000  Uiso   1.00
O53    O     0.90340   0.14948   0.65479   0.00000  Uiso   1.00
O54    O     0.84117   0.17567   0.54083   0.00000  Uiso   1.00
C55    C     0.86354   0.07618   0.57025   0.00000  Uiso   1.00
O56    O     0.82815   0.18623   0.60936   0.00000  Uiso   1.00
C57    C     0.96739   0.03158   0.69177   0.00000  Uiso   1.00
C58    C     0.94116   0.18749   0.56829   0.00000  Uiso   1.00
C59    C     0.93998   0.15409   0.66151   0.00000  Uiso   1.00
Yb60   Yb    0.34101   0.38699   0.31143   0.00000  Uiso   1.00
Yb61   Yb    0.38807   0.33545   0.41383   0.00000  Uiso   1.00
C62    C     0.44863   0.31125   0.44026   0.00000  Uiso   1.00
O63    O     0.39645   0.41823   0.33299   0.00000  Uiso   1.00
O64    O     0.37680   0.40614   0.26316   0.00000  Uiso   1.00
O65    O     0.35908   0.32872   0.30392   0.00000  Uiso   1.00
O66    O     0.40988   0.34280   0.35194   0.00000  Uiso   1.00
O67    O     0.31367   0.43747   0.30388   0.00000  Uiso   1.00
O68    O     0.28788   0.37881   0.27209   0.00000  Uiso   1.00
O69    O     0.33089   0.30617   0.39795   0.00000  Uiso   1.00
O70    O     0.35511   0.32049   0.46630   0.00000  Uiso   1.00
C71    C     0.40199   0.42501   0.29313   0.00000  Uiso   1.00
O72    O     0.31344   0.37924   0.37128   0.00000  Uiso   1.00
O73    O     0.36823   0.39266   0.41475   0.00000  Uiso   1.00
O74    O     0.41905   0.28707   0.42169   0.00000  Uiso   1.00
C75    C     0.39079   0.31980   0.32115   0.00000  Uiso   1.00
O76    O     0.44457   0.34849   0.44515   0.00000  Uiso   1.00
C77    C     0.28743   0.41681   0.27634   0.00000  Uiso   1.00
C78    C     0.32556   0.30597   0.43900   0.00000  Uiso   1.00
C79    C     0.33227   0.39513   0.40692   0.00000  Uiso   1.00
C80    C     0.45582   0.79147   0.06655   0.00000  Uiso   1.00
C81    C     0.46569   0.83008   0.08753   0.00000  Uiso   1.00
C82    C     0.50443   0.84536   0.10024   0.00000  Uiso   1.00
C83    C     0.53431   0.82244   0.09276   0.00000  Uiso   1.00
C84    C     0.52489   0.78411   0.07109   0.00000  Uiso   1.00
C85    C     0.48588   0.76860   0.05834   0.00000  Uiso   1.00
C86    C     0.41438   0.77621   0.05204   0.00000  Uiso   1.00
C87    C     0.40401   0.75459   0.01103   0.00000  Uiso   1.00
C88    C     0.36481   0.74293   0.99608   0.00000  Uiso   1.00
C89    C     0.33507   0.75265   1.02179   0.00000  Uiso   1.00
C90    C     0.34549   0.77355   0.06318   0.00000  Uiso   1.00
C91    C     0.38464   0.78509   0.07816   0.00000  Uiso   1.00
C92    C     0.29336   0.74146   1.00528   0.00000  Uiso   1.00
C93    C     0.26544   0.72798   1.03341   0.00000  Uiso   1.00
C94    C     0.22640   0.71659   1.01749   0.00000  Uiso   1.00
C95    C     0.21451   0.71834   0.97308   0.00000  Uiso   1.00
C96    C     0.24227   0.73240   0.94515   0.00000  Uiso   1.00
C97    C     0.28117   0.74400   0.96109   0.00000  Uiso   1.00
H98    H     0.44350   0.84897   0.09316   0.00000  Uiso   1.00
H99    H     0.51112   0.87553   0.11530   0.00000  Uiso   1.00
H100   H     0.54761   0.76615   0.06436   0.00000  Uiso   1.00
H101   H     0.47922   0.73870   0.04232   0.00000  Uiso   1.00
H102   H     0.42616   0.74768  -0.01009   0.00000  Uiso   1.00
H103   H     0.35781   0.72636   0.96429   0.00000  Uiso   1.00
H104   H     0.32336   0.78187   0.08361   0.00000  Uiso   1.00
H105   H     0.39164   0.80132   0.11014   0.00000  Uiso   1.00
H106   H     0.27395   0.72528   1.06752   0.00000  Uiso   1.00
H107   H     0.20581   0.70528   1.03967   0.00000  Uiso   1.00
H108   H     0.23408   0.73378   0.91068   0.00000  Uiso   1.00
H109   H     0.30176   0.75494   0.93875   0.00000  Uiso   1.00
C110   C     0.42874   0.20770   0.28383   0.00000  Uiso   1.00
C111   C     0.39103   0.21492   0.26996   0.00000  Uiso   1.00
C112   C     0.37875   0.25146   0.28175   0.00000  Uiso   1.00
C113   C     0.40386   0.28142   0.30787   0.00000  Uiso   1.00
C114   C     0.44160   0.27430   0.32157   0.00000  Uiso   1.00
C115   C     0.45399   0.23793   0.30946   0.00000  Uiso   1.00
C116   C     0.44139   0.16846   0.27250   0.00000  Uiso   1.00
C117   C     0.43014   0.14768   0.23117   0.00000  Uiso   1.00
C118   C     0.44137   0.11036   0.22098   0.00000  Uiso   1.00
C119   C     0.46440   0.09312   0.25174   0.00000  Uiso   1.00
C120   C     0.47587   0.11405   0.29294   0.00000  Uiso   1.00
C121   C     0.46442   0.15122   0.30324   0.00000  Uiso   1.00
C122   C     0.47732   0.05395   0.24060   0.00000  Uiso   1.00
C123   C     0.48000   0.02657   0.27223   0.00000  Uiso   1.00
C124   C     0.49442  -0.00923   0.26234   0.00000  Uiso   1.00
C125   C     0.50604   0.98145   0.22050   0.00000  Uiso   1.00
C126   C     0.50240   0.00827   0.18856   0.00000  Uiso   1.00
C127   C     0.48836   0.04419   0.19854   0.00000  Uiso   1.00
H128   H     0.37068   0.19203   0.25074   0.00000  Uiso   1.00
H129   H     0.34935   0.25596   0.27109   0.00000  Uiso   1.00
H130   H     0.46164   0.29686   0.34166   0.00000  Uiso   1.00
H131   H     0.48343   0.23356   0.32004   0.00000  Uiso   1.00
H132   H     0.41298   0.16042   0.20647   0.00000  Uiso   1.00
H133   H     0.43182   0.09493   0.18905   0.00000  Uiso   1.00
H134   H     0.49421   0.10199   0.31709   0.00000  Uiso   1.00
H135   H     0.47334   0.16628   0.33549   0.00000  Uiso   1.00
H136   H     0.47121   0.03292   0.30476   0.00000  Uiso   1.00
H137   H     0.49700   0.97067   0.28763   0.00000  Uiso   1.00
H138   H     0.51157   0.00210   0.15617   0.00000  Uiso   1.00
H139   H     0.48738   0.06490   0.17370   0.00000  Uiso   1.00
C140   C     0.70896   0.22661   0.52791   0.00000  Uiso   1.00
C141   C     0.72642   0.20099   0.49964   0.00000  Uiso   1.00
C142   C     0.76252   0.18950   0.51224   0.00000  Uiso   1.00
C143   C     0.78156   0.20257   0.55375   0.00000  Uiso   1.00
C144   C     0.76448   0.22824   0.58199   0.00000  Uiso   1.00
C145   C     0.72886   0.24053   0.56904   0.00000  Uiso   1.00
C146   C     0.66997   0.23818   0.51495   0.00000  Uiso   1.00
C147   C     0.64398   0.24525   0.54669   0.00000  Uiso   1.00
C148   C     0.60767   0.25648   0.53477   0.00000  Uiso   1.00
C149   C     0.59609   0.26005   0.49078   0.00000  Uiso   1.00
C150   C     0.62142   0.25235   0.45883   0.00000  Uiso   1.00
C151   C     0.65813   0.24196   0.47079   0.00000  Uiso   1.00
C152   C     0.55791   0.27256   0.47841   0.00000  Uiso   1.00
C153   C     0.53151   0.24961   0.44636   0.00000  Uiso   1.00
C154   C     0.49545   0.26165   0.43475   0.00000  Uiso   1.00
C155   C     0.48565   0.29731   0.45428   0.00000  Uiso   1.00
C156   C     0.51220   0.32035   0.48612   0.00000  Uiso   1.00
C157   C     0.54785   0.30784   0.49842   0.00000  Uiso   1.00
H158   H     0.71183   0.18890   0.46815   0.00000  Uiso   1.00
H159   H     0.77494   0.16930   0.49006   0.00000  Uiso   1.00
H160   H     0.77878   0.23899   0.61407   0.00000  Uiso   1.00
H161   H     0.71706   0.26105   0.59138   0.00000  Uiso   1.00
H162   H     0.65138   0.24169   0.58081   0.00000  Uiso   1.00
H163   H     0.58832   0.26186   0.55986   0.00000  Uiso   1.00
H164   H     0.61310   0.25529   0.42470   0.00000  Uiso   1.00
H165   H     0.67739   0.23754   0.44541   0.00000  Uiso   1.00
H166   H     0.53873   0.22227   0.43056   0.00000  Uiso   1.00
H167   H     0.47561   0.24358   0.40981   0.00000  Uiso   1.00
H168   H     0.50537   0.34801   0.50154   0.00000  Uiso   1.00
H169   H     0.56797   0.32612   0.52295   0.00000  Uiso   1.00
C170   C     0.77766   0.02565   0.78545   0.00000  Uiso   1.00
C171   C     0.78427   0.06400   0.77140   0.00000  Uiso   1.00
C172   C     0.80602   0.07102   0.73583   0.00000  Uiso   1.00
C173   C     0.82174   0.03989   0.71376   0.00000  Uiso   1.00
C174   C     0.81191   0.00093   0.72505   0.00000  Uiso   1.00
C175   C     0.78993   0.99387   0.76049   0.00000  Uiso   1.00
C176   C     0.76240   0.01968   0.82856   0.00000  Uiso   1.00
C177   C     0.77954   0.99491   0.85648   0.00000  Uiso   1.00
C178   C     0.76712   0.99042   0.89798   0.00000  Uiso   1.00
C179   C     0.73709   1.01046   0.91273   0.00000  Uiso   1.00
C180   C     0.71996   0.03545   0.88500   0.00000  Uiso   1.00
C181   C     0.73265   0.04021   0.84340   0.00000  Uiso   1.00
C182   C     0.72198   1.00230   0.95539   0.00000  Uiso   1.00
C183   C     0.74752  -0.00366   0.99127   0.00000  Uiso   1.00
C184   C     0.73312  -0.02079   0.02756   0.00000  Uiso   1.00
C185   C     0.69291   0.96803   0.02869   0.00000  Uiso   1.00
C186   C     0.66726   0.97815  -0.00489   0.00000  Uiso   1.00
C187   C     0.68166   0.99502   0.95870   0.00000  Uiso   1.00
H188   H     0.77529   0.08913   0.78988   0.00000  Uiso   1.00
H189   H     0.81304   0.10140   0.72785   0.00000  Uiso   1.00
H190   H     0.82352   0.97633   0.70863   0.00000  Uiso   1.00
H191   H     0.78434   0.96379   0.76986   0.00000  Uiso   1.00
H192   H     0.80308   0.97933   0.84653   0.00000  Uiso   1.00
H193   H     0.78051   0.97042   0.91816   0.00000  Uiso   1.00
H194   H     0.69677   0.05130   0.89547   0.00000  Uiso   1.00
H195   H     0.71896   0.05965   0.82275   0.00000  Uiso   1.00
H196   H     0.77875   0.00258   0.99006   0.00000  Uiso   1.00
H197   H     0.75361  -0.02821   0.05292   0.00000  Uiso   1.00
H198   H     0.63610   0.96984  -0.00495   0.00000  Uiso   1.00
H199   H     0.66122   0.99916   0.93163   0.00000  Uiso   1.00
C200   C     0.82455   0.03820   0.43508   0.00000  Uiso   1.00
C201   C     0.85482   1.02145   0.45639   0.00000  Uiso   1.00
C202   C     0.86753   0.03361   0.50034   0.00000  Uiso   1.00
C203   C     0.84983   0.06239   0.52397   0.00000  Uiso   1.00
C204   C     0.81913   0.07857   0.50267   0.00000  Uiso   1.00
C205   C     0.80687   0.06686   0.45872   0.00000  Uiso   1.00
C206   C     0.81015   0.02512   0.38882   0.00000  Uiso   1.00
C207   C     0.80136   0.05320   0.35985   0.00000  Uiso   1.00
C208   C     0.78275   0.04087   0.31817   0.00000  Uiso   1.00
C209   C     0.77226   1.00018   0.30462   0.00000  Uiso   1.00
C210   C     0.78332   0.97210   0.33261   0.00000  Uiso   1.00
C211   C     0.80212   0.98446   0.37428   0.00000  Uiso   1.00
C212   C     0.74472   0.98711   0.26510   0.00000  Uiso   1.00
C213   C     0.74693   0.95166   0.23899   0.00000  Uiso   1.00
C214   C     0.71572   0.93482   0.20870   0.00000  Uiso   1.00
C215   C     0.68185   0.95302   0.20464   0.00000  Uiso   1.00
C216   C     0.68116   0.99011   0.22769   0.00000  Uiso   1.00
C217   C     0.71235   0.00714   0.25735   0.00000  Uiso   1.00
H218   H     0.86892   0.99929   0.43888   0.00000  Uiso   1.00
H219   H     0.89120   1.02049   0.51579   0.00000  Uiso   1.00
H220   H     0.80448   0.10041   0.51991   0.00000  Uiso   1.00
H221   H     0.78297   0.07972   0.44339   0.00000  Uiso   1.00
H222   H     0.80780   0.08475   0.36998   0.00000  Uiso   1.00
H223   H     0.77510   0.06322   0.29719   0.00000  Uiso   1.00
H224   H     0.77513   0.94054   0.32352   0.00000  Uiso   1.00
H225   H     0.80820   0.96217   0.39608   0.00000  Uiso   1.00
H226   H     0.77172   0.93580   0.24390   0.00000  Uiso   1.00
H227   H     0.71659   0.90587   0.19167   0.00000  Uiso   1.00
H228   H     0.65513   0.00443   0.22532   0.00000  Uiso   1.00
H229   H     0.70940   0.03423   0.27701   0.00000  Uiso   1.00
C230   C     0.28766   0.45204   0.51625   0.00000  Uiso   1.00
C231   C     0.31944   0.47122   0.49726   0.00000  Uiso   1.00
C232   C     0.33250   0.45343   0.45993   0.00000  Uiso   1.00
C233   C     0.31334   0.41672   0.44034   0.00000  Uiso   1.00
C234   C     0.27975   0.39884   0.45729   0.00000  Uiso   1.00
C235   C     0.26736   0.41608   0.49569   0.00000  Uiso   1.00
C236   C     0.27778   0.46886   0.55883   0.00000  Uiso   1.00
C237   C     0.27900   0.44675   0.59533   0.00000  Uiso   1.00
C238   C     0.27374   0.46427   0.63670   0.00000  Uiso   1.00
C239   C     0.26674   0.50408   0.64213   0.00000  Uiso   1.00
C240   C     0.26495   0.52580   0.60516   0.00000  Uiso   1.00
C241   C     0.27078   0.50846   0.56405   0.00000  Uiso   1.00
C242   C     0.25901   0.52243   0.68545   0.00000  Uiso   1.00
C243   C     0.26983   0.56348   0.69702   0.00000  Uiso   1.00
C244   C     0.25543   0.58220   0.73315   0.00000  Uiso   1.00
C245   C     0.23061   0.56003   0.75877   0.00000  Uiso   1.00
C246   C     0.22363   0.51845   0.75033   0.00000  Uiso   1.00
C247   C     0.23727   0.49985   0.71371   0.00000  Uiso   1.00
H248   H     0.33530   0.49904   0.51260   0.00000  Uiso   1.00
H249   H     0.35839   0.46771   0.44709   0.00000  Uiso   1.00
H250   H     0.26454   0.37063   0.44234   0.00000  Uiso   1.00
H251   H     0.24250   0.40109   0.50978   0.00000  Uiso   1.00
H252   H     0.28531   0.41637   0.59205   0.00000  Uiso   1.00
H253   H     0.27578   0.44685   0.66449   0.00000  Uiso   1.00
H254   H     0.25859   0.55614   0.60776   0.00000  Uiso   1.00
H255   H     0.26993   0.52598   0.53621   0.00000  Uiso   1.00
H256   H     0.28773   0.58152   0.67682   0.00000  Uiso   1.00
H257   H     0.26150   0.61429   0.73917   0.00000  Uiso   1.00
H258   H     0.20451   0.50061   0.76955   0.00000  Uiso   1.00
H259   H     0.22818   0.46827   0.70584   0.00000  Uiso   1.00
C260   C     0.21371   0.54751   0.01289   0.00000  Uiso   1.00
C261   C     0.23051   0.58667   0.00825   0.00000  Uiso   1.00
C262   C     0.21817   0.60626   0.97254   0.00000  Uiso   1.00
C263   C     0.18863   0.58702   0.94158   0.00000  Uiso   1.00
C264   C     0.17369   0.54716   0.94471   0.00000  Uiso   1.00
C265   C     0.18640   0.52739   0.97991   0.00000  Uiso   1.00
C266   C     0.22096   0.52912   0.05405   0.00000  Uiso   1.00
C267   C     0.22932   0.48991   0.05332   0.00000  Uiso   1.00
C268   C     0.23334   0.47175   0.09221   0.00000  Uiso   1.00
C269   C     0.22852   0.49228   0.13260   0.00000  Uiso   1.00
C270   C     0.21982   0.53148   0.13306   0.00000  Uiso   1.00
C271   C     0.21633   0.54978   0.09422   0.00000  Uiso   1.00
C272   C     0.23523   0.47370   0.17410   0.00000  Uiso   1.00
C273   C     0.25499   0.49653   0.21127   0.00000  Uiso   1.00
C274   C     0.26817   0.47806   0.24732   0.00000  Uiso   1.00
C275   C     0.26224   0.43640   0.24672   0.00000  Uiso   1.00
C276   C     0.23905   0.41391   0.21167   0.00000  Uiso   1.00
C277   C     0.22554   0.43243   0.17571   0.00000  Uiso   1.00
H278   H     0.25184   0.60262   0.03324   0.00000  Uiso   1.00
H279   H     0.22969   0.63713   0.97073   0.00000  Uiso   1.00
H280   H     0.15047   0.53212   0.92129   0.00000  Uiso   1.00
H281   H     0.17295   0.49728   0.98294   0.00000  Uiso   1.00
H282   H     0.23297   0.47344   0.02266   0.00000  Uiso   1.00
H283   H     0.24091   0.44185   0.09065   0.00000  Uiso   1.00
H284   H     0.21531   0.54791   0.16341   0.00000  Uiso   1.00
H285   H     0.20893   0.57975   0.09541   0.00000  Uiso   1.00
H286   H     0.26298   0.52836   0.21132   0.00000  Uiso   1.00
H287   H     0.28593   0.49619   0.27396   0.00000  Uiso   1.00
H288   H     0.23388   0.38175   0.21041   0.00000  Uiso   1.00
H289   H     0.20927   0.41415   0.14820   0.00000  Uiso   1.00
C290   C     0.21218   0.27167   0.48223   0.00000  Uiso   1.00
C291   C     0.24526   0.27944   0.51253   0.00000  Uiso   1.00
C292   C     0.28227   0.28978   0.49848   0.00000  Uiso   1.00
C293   C     0.28702   0.29190   0.45376   0.00000  Uiso   1.00
C294   C     0.25404   0.28315   0.42338   0.00000  Uiso   1.00
C295   C     0.21699   0.27337   0.43749   0.00000  Uiso   1.00
C296   C     0.17274   0.26182   0.49715   0.00000  Uiso   1.00
C297   C     0.14137   0.28003   0.48053   0.00000  Uiso   1.00
C298   C     0.10396   0.26988   0.49367   0.00000  Uiso   1.00
C299   C     0.09709   0.24088   0.52321   0.00000  Uiso   1.00
C300   C     0.12859   0.22312   0.54028   0.00000  Uiso   1.00
C301   C     0.16605   0.23367   0.52762   0.00000  Uiso   1.00
C302   C     0.05700   0.22782   0.53479   0.00000  Uiso   1.00
C303   C     0.04321   0.18707   0.53371   0.00000  Uiso   1.00
C304   C     0.00544   0.17428   0.54393   0.00000  Uiso   1.00
C305   C     0.98064   0.20191   0.55614   0.00000  Uiso   1.00
C306   C     0.99453   0.24275   0.55791   0.00000  Uiso   1.00
C307   C     0.03220   0.25559   0.54669   0.00000  Uiso   1.00
H308   H     0.24234   0.27839   0.54721   0.00000  Uiso   1.00
H309   H     0.30710   0.29663   0.52266   0.00000  Uiso   1.00
H310   H     0.25672   0.28479   0.38873   0.00000  Uiso   1.00
H311   H     0.19205   0.26697   0.41339   0.00000  Uiso   1.00
H312   H     0.14584   0.30219   0.45739   0.00000  Uiso   1.00
H313   H     0.08020   0.28391   0.47987   0.00000  Uiso   1.00
H314   H     0.12418   0.20094   0.56340   0.00000  Uiso   1.00
H315   H     0.18967   0.21914   0.54088   0.00000  Uiso   1.00
H316   H     0.06155   0.16502   0.52433   0.00000  Uiso   1.00
H317   H     0.99579   0.14261   0.54263   0.00000  Uiso   1.00
H318   H     0.97633   0.26470   0.56791   0.00000  Uiso   1.00
H319   H     0.04220   0.28720   0.54793   0.00000  Uiso   1.00
C320   C     0.02290   0.93782   0.74295   0.00000  Uiso   1.00
C321   C     0.99850   0.95830   0.76825   0.00000  Uiso   1.00
C322   C     0.98297   0.99107   0.75311   0.00000  Uiso   1.00
C323   C     0.99097   0.00373   0.71205   0.00000  Uiso   1.00
C324   C     1.01699   0.98487   0.68784   0.00000  Uiso   1.00
C325   C     0.03314   0.95259   0.70334   0.00000  Uiso   1.00
C326   C     0.03518   0.89972   0.75611   0.00000  Uiso   1.00
C327   C     0.03856   0.86867   0.72411   0.00000  Uiso   1.00
C328   C     0.04826   0.83225   0.73611   0.00000  Uiso   1.00
C329   C     0.05444   0.82572   0.78038   0.00000  Uiso   1.00
C330   C     0.05104   0.85646   0.81251   0.00000  Uiso   1.00
C331   C     0.04184   0.89318   0.80053   0.00000  Uiso   1.00
C332   C     0.06523   0.78715   0.79276   0.00000  Uiso   1.00
C333   C     0.04597   0.76660   0.82441   0.00000  Uiso   1.00
C334   C     0.05605   0.72988   0.83532   0.00000  Uiso   1.00
C335   C     0.08641   0.71366   0.81584   0.00000  Uiso   1.00
C336   C     0.10571   0.73450   0.78434   0.00000  Uiso   1.00
C337   C     0.09490   0.77053   0.77256   0.00000  Uiso   1.00
H338   H     0.98953   0.94775   0.79864   0.00000  Uiso   1.00
H339   H     0.96258   0.00477   0.77221   0.00000  Uiso   1.00
H340   H     1.02371   0.99410   0.65610   0.00000  Uiso   1.00
H341   H     0.05278   0.93849   0.68357   0.00000  Uiso   1.00
H342   H     0.03281   0.87202   0.68964   0.00000  Uiso   1.00
H343   H     0.05022   0.80883   0.71072   0.00000  Uiso   1.00
H344   H     0.05611   0.85226   0.84689   0.00000  Uiso   1.00
H345   H     0.04023   0.91649   0.82612   0.00000  Uiso   1.00
H346   H     0.02272   0.77866   0.84015   0.00000  Uiso   1.00
H347   H     0.04008   0.71428   0.85902   0.00000  Uiso   1.00
H348   H     0.12933   0.72304   0.76880   0.00000  Uiso   1.00
H349   H     0.11025   0.78581   0.74812   0.00000  Uiso   1.00
C350   C     0.03985   0.44192   0.75548   0.00000  Uiso   1.00
C351   C     0.04473   0.45691   0.79984   0.00000  Uiso   1.00
C352   C     0.05736   0.49727   0.81190   0.00000  Uiso   1.00
C353   C     0.06616   0.52353   0.77999   0.00000  Uiso   1.00
C354   C     0.05892   0.50921   0.73562   0.00000  Uiso   1.00
C355   C     0.04564   0.46890   0.72349   0.00000  Uiso   1.00
C356   C     0.03002   0.39829   0.74287   0.00000  Uiso   1.00
C357   C     0.04512   0.37998   0.70636   0.00000  Uiso   1.00
C358   C     0.03489   0.33915   0.69401   0.00000  Uiso   1.00
C359   C     0.00953   0.31582   0.71804   0.00000  Uiso   1.00
C360   C    -0.00419   0.33378   0.75548   0.00000  Uiso   1.00
C361   C     0.00565   0.37443   0.76755   0.00000  Uiso   1.00
C362   C     0.99357   0.27410   0.70209   0.00000  Uiso   1.00
C363   C     0.95351   0.26237   0.70243   0.00000  Uiso   1.00
C364   C     0.93714   0.22356   0.68919   0.00000  Uiso   1.00
C365   C     0.96010   0.19495   0.67458   0.00000  Uiso   1.00
C366   C     1.00032   0.20641   0.67335   0.00000  Uiso   1.00
C367   C     1.01698   0.24599   0.68681   0.00000  Uiso   1.00
H368   H     0.04105   0.43718   0.82553   0.00000  Uiso   1.00
H369   H     0.06337   0.50715   0.84641   0.00000  Uiso   1.00
H370   H     0.06568   0.52865   0.71027   0.00000  Uiso   1.00
H371   H     0.04113   0.45870   0.68901   0.00000  Uiso   1.00
H372   H     0.06472   0.39718   0.68713   0.00000  Uiso   1.00
H373   H     0.04561   0.32618   0.66481   0.00000  Uiso   1.00
H374   H     0.97643   0.31644   0.77489   0.00000  Uiso   1.00
H375   H    -0.00683   0.38723   0.79561   0.00000  Uiso   1.00
H376   H     0.93454   0.28342   0.71294   0.00000  Uiso   1.00
H377   H     0.90606   0.21598   0.69077   0.00000  Uiso   1.00
H378   H     1.01860   0.18506   0.66187   0.00000  Uiso   1.00
H379   H     1.04803   0.25444   0.68603   0.00000  Uiso   1.00
C380   C     0.79512   0.76667   0.04020   0.00000  Uiso   1.00
C381   C     0.76571   0.77179   1.00795   0.00000  Uiso   1.00
C382   C     0.73290   0.78850   0.01941   0.00000  Uiso   1.00
C383   C     0.72866   0.80029   0.06336   0.00000  Uiso   1.00
C384   C     0.75665   0.79275   0.09591   0.00000  Uiso   1.00
C385   C     0.78960   0.77613   0.08444   0.00000  Uiso   1.00
C386   C     0.83255   0.75447   0.02752   0.00000  Uiso   1.00
C387   C     0.85223   0.72903   0.05221   0.00000  Uiso   1.00
C388   C     0.88809   0.71888   0.04081   0.00000  Uiso   1.00
C389   C     0.90518   0.73412   1.00458   0.00000  Uiso   1.00
C390   C     0.88544   0.75951   0.97993   0.00000  Uiso   1.00
C391   C     0.84966   0.76960   0.99128   0.00000  Uiso   1.00
C392   C     0.94314   0.72330   0.99202   0.00000  Uiso   1.00
C393   C     0.97083   0.75167   0.97666   0.00000  Uiso   1.00
C394   C     0.00586   0.74106   0.96317   0.00000  Uiso   1.00
C395   C     0.01394   0.70186   0.96483   0.00000  Uiso   1.00
C396   C    -0.01349   0.67360   0.98053   0.00000  Uiso   1.00
C397   C     0.95156   0.68420   0.99407   0.00000  Uiso   1.00
H398   H     0.76859   0.76399   0.97365   0.00000  Uiso   1.00
H399   H     0.71161   0.79370   0.99366   0.00000  Uiso   1.00
H400   H     0.75435   0.80193   0.13003   0.00000  Uiso   1.00
H401   H     0.81177   0.77279   0.11006   0.00000  Uiso   1.00
H402   H     0.83983   0.71682   0.08026   0.00000  Uiso   1.00
H403   H     0.90268   0.69951   0.06072   0.00000  Uiso   1.00
H404   H     0.89752   0.77136   0.95155   0.00000  Uiso   1.00
H405   H     0.83572   0.78990   0.97204   0.00000  Uiso   1.00
H406   H     0.96545   0.78216   0.97519   0.00000  Uiso   1.00
H407   H     0.02641   0.76342   0.95108   0.00000  Uiso   1.00
H408   H    -0.00815   0.64307  -0.01808   0.00000  Uiso   1.00
H409   H     0.93073   0.66150   0.00517   0.00000  Uiso   1.00
C410   C     0.50906   0.69952   0.23892   0.00000  Uiso   1.00
C411   C     0.54809   0.71763   0.24327   0.00000  Uiso   1.00
C412   C     0.55743   0.75780   0.23716   0.00000  Uiso   1.00
C413   C     0.52808   0.78079   0.22600   0.00000  Uiso   1.00
C414   C     0.48906   0.76297   0.22143   0.00000  Uiso   1.00
C415   C     0.47959   0.72283   0.22835   0.00000  Uiso   1.00
C416   C     0.49935   0.65641   0.24470   0.00000  Uiso   1.00
C417   C     0.46813   0.63293   0.21903   0.00000  Uiso   1.00
C418   C     0.45875   0.59260   0.22469   0.00000  Uiso   1.00
C419   C     0.48053   0.57453   0.25593   0.00000  Uiso   1.00
C420   C     0.51226   0.59777   0.28094   0.00000  Uiso   1.00
C421   C     0.52143   0.63822   0.27559   0.00000  Uiso   1.00
C422   C     0.46819   0.53253   0.26454   0.00000  Uiso   1.00
C423   C     0.45181   0.50392   0.23028   0.00000  Uiso   1.00
C424   C     0.43364   0.46671   0.23934   0.00000  Uiso   1.00
C425   C     0.43159   0.45733   0.28281   0.00000  Uiso   1.00
C426   C     0.45112   0.48443   0.31675   0.00000  Uiso   1.00
C427   C     0.46909   0.52171   0.30773   0.00000  Uiso   1.00
H428   H     0.57168   0.70065   0.25042   0.00000  Uiso   1.00
H429   H     0.58786   0.77057   0.23998   0.00000  Uiso   1.00
H430   H     0.46587   0.78002   0.21270   0.00000  Uiso   1.00
H431   H     0.44914   0.71021   0.22560   0.00000  Uiso   1.00
H432   H     0.45083   0.64563   0.19443   0.00000  Uiso   1.00
H433   H     0.43367   0.57589   0.20534   0.00000  Uiso   1.00
H434   H     0.52986   0.58478   0.30502   0.00000  Uiso   1.00
H435   H     0.54543   0.65530   0.29635   0.00000  Uiso   1.00
H436   H     0.45132   0.51096   0.19657   0.00000  Uiso   1.00
H437   H     0.41878   0.44646   0.21248   0.00000  Uiso   1.00
H438   H     0.44972   0.47826   0.35061   0.00000  Uiso   1.00
H439   H     0.48109   0.54303   0.33498   0.00000  Uiso   1.00
loop_
_geom_bond_atom_site_label_1
_geom_bond_atom_site_label_2
_geom_bond_distance
_geom_bond_site_symmetry_2
_ccdc_geom_bond_type
Yb0    O3      2.100   .     S
Yb0    O4      2.101   .     S
Yb0    O5      2.158   .     S
Yb0    O7      2.091   .     S
Yb0    O8      2.099   .     S
Yb0    O12     2.151   .     S
Yb1    O6      2.136   .     S
Yb1    O9      2.098   .     S
Yb1    O10     2.110   .     S
Yb1    O13     2.145   .     S
Yb1    O14     2.106   .     S
Yb1    O16     2.090   .     S
C2     O14     1.294   .     A
C2     O16     1.291   .     A
C2     C395    1.478   .     S
O3     C11     1.291   .     A
O4     C11     1.290   .     A
O5     C15     1.270   .     A
O6     C15     1.270   .     A
O7     C17     1.290   .     A
O8     C17     1.291   .     A
O9     C18     1.291   .     A
O10    C18     1.294   .     A
C11    C353    1.477   .     S
O12    C19     1.271   .     A
O13    C19     1.269   .     A
C15    C335    1.484   .     S
C17    C245    1.471   .     S
C18    C95     1.480   .     S
C19    C263    1.461   .     S
Yb20   O23     2.090   .     S
Yb20   O24     2.103   .     S
Yb20   O25     2.171   .     S
Yb20   O27     2.092   .     S
Yb20   O28     2.110   .     S
Yb20   O32     2.209   .     S
Yb21   O26     2.180   .     S
Yb21   O29     2.086   .     S
Yb21   O30     2.108   .     S
Yb21   O33     2.131   .     S
Yb21   O34     2.099   .     S
Yb21   O36     2.093   .     S
C22    O34     1.293   .     A
C22    O36     1.292   .     A
C22    C125    1.476   .     S
O23    C31     1.290   .     A
O24    C31     1.293   .     A
O25    C35     1.270   .     A
O26    C35     1.280   .     A
O27    C37     1.289   .     A
O28    C37     1.293   .     A
O29    C38     1.290   .     A
O30    C38     1.293   .     A
C31    C185    1.476   .     S
O32    C39     1.274   .     A
O33    C39     1.258   .     A
C35    C215    1.469   .     S
C37    C383    1.477   .     S
C38    C413    1.474   .     S
C39    C83     1.473   .     S
Yb40   O43     2.102   .     S
Yb40   O44     2.118   .     S
Yb40   O45     2.190   .     S
Yb40   O47     2.107   .     S
Yb40   O48     2.100   .     S
Yb40   O52     2.189   .     S
Yb41   O46     2.128   .     S
Yb41   O49     2.098   .     S
Yb41   O50     2.122   .     S
Yb41   O53     2.123   .     S
Yb41   O54     2.102   .     S
Yb41   O56     2.095   .     S
C42    O54     1.294   .     A
C42    O56     1.292   .     A
C42    C143    1.475   .     S
O43    C51     1.285   .     A
O44    C51     1.291   .     A
O45    C55     1.280   .     A
O46    C55     1.269   .     A
O47    C57     1.291   .     A
O48    C57     1.290   .     A
O49    C58     1.289   .     A
O50    C58     1.295   .     A
C51    C173    1.477   .     S
O52    C59     1.272   .     A
O53    C59     1.260   .     A
C55    C203    1.484   .     S
C57    C323    1.476   .     S
C58    C305    1.482   .     S
C59    C365    1.481   .     S
Yb60   O63     2.106   .     S
Yb60   O64     2.100   .     S
Yb60   O65     2.158   .     S
Yb60   O67     2.091   .     S
Yb60   O68     2.102   .     S
Yb60   O72     2.161   .     S
Yb61   O66     2.125   .     S
Yb61   O69     2.106   .     S
Yb61   O70     2.109   .     S
Yb61   O73     2.149   .     S
Yb61   O74     2.103   .     S
Yb61   O76     2.096   .     S
C62    O74     1.293   .     A
C62    O76     1.292   .     A
C62    C155    1.475   .     S
O63    C71     1.290   .     A
O64    C71     1.289   .     A
O65    C75     1.270   .     A
O66    C75     1.264   .     A
O67    C77     1.289   .     A
O68    C77     1.292   .     A
O69    C78     1.291   .     A
O70    C78     1.293   .     A
C71    C425    1.477   .     S
O72    C79     1.274   .     A
O73    C79     1.270   .     A
C75    C113    1.476   .     S
C77    C275    1.473   .     S
C78    C293    1.481   .     S
C79    C233    1.464   .     S
C80    C81     1.404   .     A
C80    C85     1.409   .     A
C80    C86     1.487   .     S
C81    C82     1.393   .     A
C81    H98     1.083   .     S
C82    C83     1.401   .     A
C82    H99     1.080   .     S
C83    C84     1.403   .     A
C84    C85     1.403   .     A
C84    H100    1.083   .     S
C85    H101    1.083   .     S
C86    C87     1.405   .     A
C86    C91     1.407   .     A
C87    H102    1.083   .     S
C87    C88     1.399   1_554 A
C88    C89     1.408   .     A
C88    H103    1.083   .     S
C88    C87     1.399   1_556 A
C89    C92     1.488   .     S
C89    C90     1.405   1_556 A
C90    C91     1.397   .     A
C90    H104    1.083   .     S
C90    C89     1.405   1_554 A
C91    H105    1.083   .     S
C92    C93     1.407   .     A
C92    C97     1.405   .     A
C93    C94     1.400   .     A
C93    H106    1.083   .     S
C94    C95     1.405   .     A
C94    H107    1.083   .     S
C95    C96     1.405   .     A
C96    C97     1.397   .     A
C96    H108    1.083   .     S
C97    H109    1.083   .     S
C110   C111    1.406   .     A
C110   C115    1.405   .     A
C110   C116    1.484   .     S
C111   C112    1.397   .     A
C111   H128    1.083   .     S
C112   C113    1.404   .     A
C112   H129    1.083   .     S
C113   C114    1.405   .     A
C114   C115    1.395   .     A
C114   H130    1.083   .     S
C115   H131    1.083   .     S
C116   C117    1.405   .     A
C116   C121    1.406   .     A
C117   C118    1.396   .     A
C117   H132    1.083   .     S
C118   C119    1.406   .     A
C118   H133    1.083   .     S
C119   C120    1.405   .     A
C119   C122    1.485   .     S
C120   C121    1.396   .     A
C120   H134    1.083   .     S
C121   H135    1.083   .     S
C122   C123    1.407   .     A
C122   C127    1.405   .     A
C123   C124    1.398   .     A
C123   H136    1.083   .     S
C124   C125    1.404   1_545 A
C124   H137    1.083   1_545 S
C125   C124    1.404   1_565 A
C125   C126    1.404   1_565 A
C126   C127    1.396   .     A
C126   H138    1.083   .     S
C126   C125    1.404   1_545 A
C127   H139    1.082   .     S
H137   C124    1.083   1_565 S
C140   C141    1.409   .     A
C140   C145    1.409   .     A
C140   C146    1.495   .     S
C141   C142    1.399   .     A
C141   H158    1.082   .     S
C142   C143    1.402   .     A
C142   H159    1.083   .     S
C143   C144    1.402   .     A
C144   C145    1.398   .     A
C144   H160    1.083   .     S
C145   H161    1.082   .     S
C146   C147    1.409   .     A
C146   C151    1.410   .     A
C147   C148    1.397   .     A
C147   H162    1.082   .     S
C148   C149    1.401   .     A
C148   H163    1.083   .     S
C149   C150    1.402   .     A
C149   C152    1.478   .     S
C150   C151    1.399   .     A
C150   H164    1.083   .     S
C151   H165    1.082   .     S
C152   C153    1.404   .     A
C152   C157    1.403   .     A
C153   C154    1.399   .     A
C153   H166    1.083   .     S
C154   C155    1.405   .     A
C154   H167    1.083   .     S
C155   C156    1.404   .     A
C156   C157    1.398   .     A
C156   H168    1.083   .     S
C157   H169    1.083   .     S
C170   C171    1.404   .     A
C170   C176    1.486   .     S
C170   C175    1.408   1_545 A
C171   C172    1.397   .     A
C171   H188    1.083   .     S
C172   C173    1.406   .     A
C172   H189    1.083   .     S
C173   C174    1.403   .     A
C174   C175    1.398   1_545 A
C174   H190    1.083   1_545 S
C175   H191    1.083   .     S
C175   C170    1.408   1_565 A
C175   C174    1.398   1_565 A
C176   C181    1.407   .     A
C176   C177    1.405   1_545 A
C177   C178    1.393   .     A
C177   H192    1.083   .     S
C177   C176    1.405   1_565 A
C178   C179    1.405   .     A
C178   H193    1.083   .     S
C179   C182    1.485   .     S
C179   C180    1.406   1_565 A
C180   C181    1.401   .     A
C180   H194    1.083   .     S
C180   C179    1.406   1_545 A
C181   H195    1.083   .     S
C182   C187    1.405   .     A
C182   C183    1.407   1_565 A
C183   H196    1.083   .     S
C183   C182    1.407   1_545 A
C183   C184    1.397   1_556 A
C184   H197    1.083   .     S
C184   C183    1.397   1_554 A
C184   C185    1.404   1_545 A
C185   C186    1.406   .     A
C185   C184    1.404   1_565 A
C186   H198    1.083   .     S
C186   C187    1.397   1_554 A
C187   H199    1.083   .     S
C187   C186    1.397   1_556 A
H190   C174    1.083   1_565 S
C200   C205    1.404   .     A
C200   C206    1.484   .     S
C200   C201    1.405   1_545 A
C201   H218    1.083   .     S
C201   C200    1.405   1_565 A
C201   C202    1.402   1_565 A
C202   C203    1.408   .     A
C202   C201    1.402   1_545 A
C202   H219    1.083   1_545 S
C203   C204    1.406   .     A
C204   C205    1.396   .     A
C204   H220    1.082   .     S
C205   H221    1.083   .     S
C206   C207    1.405   .     A
C206   C211    1.405   1_545 A
C207   C208    1.397   .     A
C207   H222    1.083   .     S
C208   H223    1.083   .     S
C208   C209    1.406   1_545 A
C209   C210    1.407   .     A
C209   C212    1.488   .     S
C209   C208    1.406   1_565 A
C210   C211    1.399   .     A
C210   H224    1.083   .     S
C211   H225    1.083   .     S
C211   C206    1.405   1_565 A
C212   C213    1.409   .     A
C212   C217    1.406   1_565 A
C213   C214    1.403   .     A
C213   H226    1.083   .     S
C214   C215    1.403   .     A
C214   H227    1.083   .     S
C215   C216    1.401   .     A
C216   C217    1.393   1_565 A
C216   H228    1.084   1_565 S
C217   H229    1.082   .     S
C217   C212    1.406   1_545 A
C217   C216    1.393   1_545 A
H219   C202    1.083   1_565 S
H228   C216    1.084   1_545 S
C230   C231    1.401   .     A
C230   C235    1.405   .     A
C230   C236    1.471   .     S
C231   C232    1.391   .     A
C231   H248    1.083   .     S
C232   C233    1.402   .     A
C232   H249    1.084   .     S
C233   C234    1.402   .     A
C234   C235    1.400   .     A
C234   H250    1.082   .     S
C235   H251    1.083   .     S
C236   C237    1.402   .     A
C236   C241    1.400   .     A
C237   C238    1.397   .     A
C237   H252    1.083   .     S
C238   C239    1.407   .     A
C238   H253    1.082   .     S
C239   C240    1.408   .     A
C239   C242    1.485   .     S
C240   C241    1.393   .     A
C240   H254    1.082   .     S
C241   H255    1.083   .     S
C242   C243    1.407   .     A
C242   C247    1.405   .     A
C243   C244    1.396   .     A
C243   H256    1.083   .     S
C244   C245    1.403   .     A
C244   H257    1.083   .     S
C245   C246    1.403   .     A
C246   C247    1.394   .     A
C246   H258    1.083   .     S
C247   H259    1.082   .     S
C260   C261    1.406   .     A
C260   C266    1.476   .     S
C260   C265    1.403   1_554 A
C261   H278    1.083   .     S
C261   C262    1.399   1_554 A
C262   C263    1.401   .     A
C262   H279    1.081   .     S
C262   C261    1.399   1_556 A
C263   C264    1.401   .     A
C264   C265    1.394   .     A
C264   H280    1.084   .     S
C265   H281    1.083   .     S
C265   C260    1.403   1_556 A
C266   C267    1.402   .     A
C266   C271    1.403   .     A
C267   C268    1.396   .     A
C267   H282    1.083   .     S
C268   C269    1.409   .     A
C268   H283    1.082   .     S
C269   C270    1.406   .     A
C269   C272    1.486   .     S
C270   C271    1.396   .     A
C270   H284    1.082   .     S
C271   H285    1.083   .     S
C272   C273    1.406   .     A
C272   C277    1.407   .     A
C273   C274    1.395   .     A
C273   H286    1.082   .     S
C274   C275    1.404   .     A
C274   H287    1.083   .     S
C275   C276    1.403   .     A
C276   C277    1.397   .     A
C276   H288    1.083   .     S
C277   H289    1.082   .     S
C290   C291    1.406   .     A
C290   C295    1.405   .     A
C290   C296    1.485   .     S
C291   C292    1.400   .     A
C291   H308    1.083   .     S
C292   C293    1.405   .     A
C292   H309    1.083   .     S
C293   C294    1.406   .     A
C294   C295    1.399   .     A
C294   H310    1.083   .     S
C295   H311    1.083   .     S
C296   C297    1.406   .     A
C296   C301    1.404   .     A
C297   C298    1.401   .     A
C297   H312    1.083   .     S
C298   C299    1.405   .     A
C298   H313    1.083   .     S
C299   C300    1.406   .     A
C299   C302    1.486   .     S
C300   C301    1.399   .     A
C300   H314    1.083   .     S
C301   H315    1.083   .     S
C302   C303    1.403   .     A
C302   C307    1.407   .     A
C303   C304    1.396   .     A
C303   H316    1.083   .     S
C304   C305    1.406   1_455 A
C304   H317    1.083   1_455 S
C305   C306    1.406   .     A
C305   C304    1.406   1_655 A
C306   H318    1.083   .     S
C306   C307    1.404   1_655 A
C307   H319    1.083   .     S
C307   C306    1.404   1_455 A
H317   C304    1.083   1_655 S
C320   C325    1.409   .     A
C320   C326    1.494   .     S
C320   C321    1.408   1_455 A
C321   C322    1.399   .     A
C321   H338    1.082   .     S
C321   C320    1.408   1_655 A
C322   C323    1.404   1_565 A
C322   H339    1.083   1_565 S
C323   C322    1.404   1_545 A
C323   C324    1.403   1_545 A
C324   H340    1.083   .     S
C324   C323    1.403   1_565 A
C324   C325    1.398   1_655 A
C325   H341    1.082   .     S
C325   C324    1.398   1_455 A
C326   C327    1.409   .     A
C326   C331    1.409   .     A
C327   C328    1.397   .     A
C327   H342    1.082   .     S
C328   C329    1.403   .     A
C328   H343    1.083   .     S
C329   C330    1.404   .     A
C329   C332    1.482   .     S
C330   C331    1.400   .     A
C330   H344    1.083   .     S
C331   H345    1.082   .     S
C332   C333    1.405   .     A
C332   C337    1.403   .     A
C333   C334    1.401   .     A
C333   H346    1.083   .     S
C334   C335    1.406   .     A
C334   H347    1.082   .     S
C335   C336    1.407   .     A
C336   C337    1.396   .     A
C336   H348    1.083   .     S
C337   H349    1.083   .     S
H339   C322    1.083   1_545 S
C350   C351    1.408   .     A
C350   C355    1.408   .     A
C350   C356    1.492   .     S
C351   C352    1.397   .     A
C351   H368    1.082   .     S
C352   C353    1.404   .     A
C352   H369    1.083   .     S
C353   C354    1.405   .     A
C354   C355    1.399   .     A
C354   H370    1.083   .     S
C355   H371    1.082   .     S
C356   C357    1.411   .     A
C356   C361    1.405   .     A
C357   C358    1.402   .     A
C357   H372    1.082   .     S
C358   C359    1.403   .     A
C358   H373    1.083   .     S
C359   C360    1.406   .     A
C359   C362    1.484   1_455 S
C360   C361    1.394   .     A
C360   H374    1.083   1_455 S
C361   H375    1.082   .     S
C362   C363    1.399   .     A
C362   C367    1.411   .     A
C362   C359    1.484   1_655 S
C363   C364    1.384   .     A
C363   H376    1.083   .     S
C364   C365    1.406   .     A
C364   H377    1.084   .     S
C365   C366    1.406   .     A
C366   C367    1.410   .     A
C366   H378    1.083   .     S
C367   H379    1.083   .     S
H374   C360    1.083   1_655 S
C380   C385    1.407   .     A
C380   C386    1.488   .     S
C380   C381    1.406   1_554 A
C381   H398    1.083   .     S
C381   C380    1.406   1_556 A
C381   C382    1.397   1_556 A
C382   C383    1.404   .     A
C382   C381    1.397   1_554 A
C382   H399    1.083   1_554 S
C383   C384    1.404   .     A
C384   C385    1.400   .     A
C384   H400    1.083   .     S
C385   H401    1.082   .     S
C386   C387    1.406   .     A
C386   C391    1.406   1_554 A
C387   C388    1.400   .     A
C387   H402    1.083   .     S
C388   H403    1.083   .     S
C388   C389    1.407   1_554 A
C389   C390    1.405   .     A
C389   C392    1.488   .     S
C389   C388    1.407   1_556 A
C390   C391    1.396   .     A
C390   H404    1.083   .     S
C391   H405    1.083   .     S
C391   C386    1.406   1_556 A
C392   C393    1.408   .     A
C392   C397    1.405   .     A
C393   H406    1.082   .     S
C393   C394    1.399   1_655 A
C394   C395    1.403   .     A
C394   H407    1.083   .     S
C394   C393    1.399   1_455 A
C395   C396    1.405   .     A
C396   C397    1.397   1_455 A
C396   H408    1.083   1_556 S
C397   C396    1.397   1_655 A
C397   H409    1.083   1_556 S
H399   C382    1.083   1_556 S
H408   C396    1.083   1_554 S
H409   C397    1.083   1_554 S
C410   C411    1.407   .     A
C410   C415    1.411   .     A
C410   C416    1.490   .     S
C411   C412    1.394   .     A
C411   H428    1.083   .     S
C412   C413    1.404   .     A
C412   H429    1.084   .     S
C413   C414    1.403   .     A
C414   C415    1.400   .     A
C414   H430    1.084   .     S
C415   H431    1.083   .     S
C416   C417    1.406   .     A
C416   C421    1.408   .     A
C417   C418    1.397   .     A
C417   H432    1.083   .     S
C418   C419    1.407   .     A
C418   H433    1.083   .     S
C419   C420    1.405   .     A
C419   C422    1.488   .     S
C420   C421    1.398   .     A
C420   H434    1.083   .     S
C421   H435    1.083   .     S
C422   C423    1.407   .     A
C422   C427    1.407   .     A
C423   C424    1.398   .     A
C423   H436    1.083   .     S
C424   C425    1.405   .     A
C424   H437    1.083   .     S
C425   C426    1.404   .     A
C426   C427    1.397   .     A
C426   H438    1.083   .     S
C427   H439    1.082   .     S
