data_lcy+N106+E161
_audit_creation_date              2025-01-21
_audit_creation_method            'Materials Studio'
_symmetry_space_group_name_H-M    'P1'
_symmetry_Int_Tables_number       1
_symmetry_cell_setting            triclinic
loop_
_symmetry_equiv_pos_as_xyz
  x,y,z
_cell_length_a                    39.0398
_cell_length_b                    39.7035
_cell_length_c                    40.2281
_cell_angle_alpha                 97.3095
_cell_angle_beta                  96.8979
_cell_angle_gamma                 90.6874
loop_
_atom_site_label
_atom_site_type_symbol
_atom_site_fract_x
_atom_site_fract_y
_atom_site_fract_z
_atom_site_U_iso_or_equiv
_atom_site_adp_type
_atom_site_occupancy
Y0     Y     0.11639   0.63788   0.82893   0.00000  Uiso   1.00
Y1     Y     0.14749   0.59367   0.88481   0.00000  Uiso   1.00
O2     O     0.14892   0.60180   0.79950   0.00000  Uiso   1.00
O3     O     0.11089   0.58179   0.83630   0.00000  Uiso   1.00
C4     C     0.18247   0.56306   0.93401   0.00000  Uiso   1.00
O5     O     0.09520   0.56846   0.88221   0.00000  Uiso   1.00
O6     O     0.12191   0.67757   0.79493   0.00000  Uiso   1.00
O7     O     0.07374   0.65186   0.78992   0.00000  Uiso   1.00
O8     O     0.17931   0.57810   0.84170   0.00000  Uiso   1.00
O9     O     0.16725   0.63815   0.86239   0.00000  Uiso   1.00
O10    O     0.13810   0.68292   0.86700   0.00000  Uiso   1.00
O11    O     0.07796   0.64155   0.86572   0.00000  Uiso   1.00
C12    C     0.17283   0.58260   0.81042   0.00000  Uiso   1.00
O13    O     0.11359   0.63203   0.91134   0.00000  Uiso   1.00
C14    C     0.08623   0.56728   0.85226   0.00000  Uiso   1.00
O15    O     0.16622   0.54708   0.90759   0.00000  Uiso   1.00
O16    O     0.18202   0.59479   0.93406   0.00000  Uiso   1.00
C17    C     0.09100   0.67589   0.78157   0.00000  Uiso   1.00
C18    C     0.08498   0.64274   0.89770   0.00000  Uiso   1.00
C19    C     0.16454   0.67053   0.87779   0.00000  Uiso   1.00
Y20    Y     0.65511   0.83933   0.10647   0.00000  Uiso   1.00
Y21    Y     0.60649   0.89799   0.13067   0.00000  Uiso   1.00
O22    O     0.62180   0.81147   0.13589   0.00000  Uiso   1.00
O23    O     0.59665   0.84531   0.10140   0.00000  Uiso   1.00
C24    C     0.57473   0.95188   0.16015   0.00000  Uiso   1.00
O25    O     0.57494   0.88754   0.07936   0.00000  Uiso   1.00
O26    O     0.70348   0.80932   0.10819   0.00000  Uiso   1.00
O27    O     0.67024   0.80262   0.06281   0.00000  Uiso   1.00
O28    O     0.59969   0.85694   0.16492   0.00000  Uiso   1.00
O29    O     0.66408   0.89166   0.13707   0.00000  Uiso   1.00
O30    O     0.68287   0.84852   0.15931   0.00000  Uiso   1.00
O31    O     0.65517   0.87598   0.06839   0.00000  Uiso   1.00
C32    C     0.60613   0.82496   0.16038   0.00000  Uiso   1.00
O33    O     0.63946   0.92356   0.09822   0.00000  Uiso   1.00
C34    C     0.57748   0.85705   0.07452   0.00000  Uiso   1.00
O35    O     0.56707   0.93873   0.13002   0.00000  Uiso   1.00
O36    O     0.59770   0.93588   0.17599   0.00000  Uiso   1.00
C37    C     0.69874   0.79525   0.07818   0.00000  Uiso   1.00
C38    C     0.65034   0.90793   0.07182   0.00000  Uiso   1.00
C39    C     0.67887   0.87866   0.16537   0.00000  Uiso   1.00
Y40    Y     0.83309   0.10599   0.66557   0.00000  Uiso   1.00
Y41    Y     0.88410   0.12830   0.61597   0.00000  Uiso   1.00
O42    O     0.79832   0.13640   0.63314   0.00000  Uiso   1.00
O43    O     0.83288   0.09954   0.60811   0.00000  Uiso   1.00
C44    C     0.93156   0.16216   0.58818   0.00000  Uiso   1.00
O45    O     0.87499   0.07657   0.58491   0.00000  Uiso   1.00
O46    O     0.82246   0.10259   0.71862   0.00000  Uiso   1.00
O47    O     0.78857   0.07538   0.67978   0.00000  Uiso   1.00
O48    O     0.83941   0.16498   0.61221   0.00000  Uiso   1.00
O49    O     0.88313   0.13660   0.67224   0.00000  Uiso   1.00
O50    O     0.83865   0.16116   0.68859   0.00000  Uiso   1.00
O51    O     0.87276   0.06524   0.66414   0.00000  Uiso   1.00
C52    C     0.80783   0.16053   0.61748   0.00000  Uiso   1.00
O53    O     0.91550   0.08975   0.64183   0.00000  Uiso   1.00
C54    C     0.84480   0.07245   0.58817   0.00000  Uiso   1.00
O55    O     0.90747   0.14377   0.57099   0.00000  Uiso   1.00
O56    O     0.93034   0.16356   0.61948   0.00000  Uiso   1.00
C57    C     0.79613   0.08328   0.71133   0.00000  Uiso   1.00
C58    C     0.90344   0.06579   0.65596   0.00000  Uiso   1.00
C59    C     0.86838   0.16609   0.68460   0.00000  Uiso   1.00
Y60    Y     0.40929   0.42212   0.37651   0.00000  Uiso   1.00
Y61    Y     0.35518   0.36962   0.39466   0.00000  Uiso   1.00
O62    O     0.44425   0.39553   0.41223   0.00000  Uiso   1.00
O63    O     0.40495   0.36414   0.37142   0.00000  Uiso   1.00
C64    C     0.30788   0.33737   0.42425   0.00000  Uiso   1.00
O65    O     0.36022   0.33665   0.34542   0.00000  Uiso   1.00
O66    O     0.41623   0.47445   0.36326   0.00000  Uiso   1.00
O67    O     0.45416   0.43945   0.35103   0.00000  Uiso   1.00
O68    O     0.40347   0.36622   0.43306   0.00000  Uiso   1.00
O69    O     0.36034   0.42653   0.40127   0.00000  Uiso   1.00
O70    O     0.40674   0.44904   0.42916   0.00000  Uiso   1.00
O71    O     0.36821   0.41417   0.33211   0.00000  Uiso   1.00
C72    C     0.43509   0.37661   0.43345   0.00000  Uiso   1.00
O73    O     0.32345   0.39860   0.35725   0.00000  Uiso   1.00
C74    C     0.39048   0.34233   0.34395   0.00000  Uiso   1.00
O75    O     0.31482   0.32843   0.39467   0.00000  Uiso   1.00
O76    O     0.32645   0.36230   0.43906   0.00000  Uiso   1.00
C77    C     0.44364   0.46939   0.35011   0.00000  Uiso   1.00
C78    C     0.33578   0.41039   0.33275   0.00000  Uiso   1.00
C79    C     0.37683   0.44248   0.43135   0.00000  Uiso   1.00
H80    H     0.18584   0.73484   0.87512   0.00000  Uiso   1.00
C81    C     0.55461   0.83559   0.04815   0.00000  Uiso   1.00
C82    C     0.54485   0.80287   0.05374   0.00000  Uiso   1.00
C83    C     0.51485   0.78659   0.03571   0.00000  Uiso   1.00
C84    C     0.49491   0.80304   0.01122   0.00000  Uiso   1.00
C85    C     0.50684   0.83429   0.00300   0.00000  Uiso   1.00
C86    C     0.53666   0.85028   0.02153   0.00000  Uiso   1.00
C87    C     0.50265   0.75308   0.04452   0.00000  Uiso   1.00
C88    C     0.48639   0.85185   0.97640   0.00000  Uiso   1.00
C89    C     0.43383   0.80247   0.01606   0.00000  Uiso   1.00
C90    C     0.39965   0.79145   0.00466   0.00000  Uiso   1.00
C91    C     0.39296   0.76811   0.97510   0.00000  Uiso   1.00
C92    C     0.42043   0.75629   0.95738   0.00000  Uiso   1.00
C93    C     0.45427   0.76814   0.96974   0.00000  Uiso   1.00
C94    C     0.37213   0.80319   0.02212   0.00000  Uiso   1.00
C95    C     0.33833   0.79180   0.01043   0.00000  Uiso   1.00
C96    C     0.33132   0.76840   0.98104   0.00000  Uiso   1.00
C97    C     0.35873   0.75655   0.96328   0.00000  Uiso   1.00
C98    C     0.35201   0.73305   0.93383   0.00000  Uiso   1.00
C99    C     0.37954   0.72147   0.91626   0.00000  Uiso   1.00
C100   C     0.41337   0.73300   0.92789   0.00000  Uiso   1.00
C101   C     0.29756   0.75629   0.96903   0.00000  Uiso   1.00
C102   C     0.31783   0.72159   0.92285   0.00000  Uiso   1.00
C103   C     0.25690   0.72013   0.92923   0.00000  Uiso   1.00
C104   C     0.26857   0.66926   0.96162   0.00000  Uiso   1.00
C105   C     0.21522   0.67308   0.92154   0.00000  Uiso   1.00
C106   C     0.24519   0.77115   0.89800   0.00000  Uiso   1.00
C107   C     0.20246   0.72228   0.89303   0.00000  Uiso   1.00
C108   C     0.23441   0.73746   0.90740   0.00000  Uiso   1.00
C109   C     0.24647   0.68830   0.93737   0.00000  Uiso   1.00
C110   C     0.19334   0.68960   0.89916   0.00000  Uiso   1.00
H111   H     0.26919   0.76835   0.88575   0.00000  Uiso   1.00
N112   N     0.46029   0.79076  -0.00140   0.00000  Uiso   1.00
N113   N     0.29148   0.73326   0.94050   0.00000  Uiso   1.00
H114   H     0.24994   0.79005   0.92099   0.00000  Uiso   1.00
H115   H     0.55870   0.79138   0.07423   0.00000  Uiso   1.00
H116   H     0.54443   0.87539   0.01692   0.00000  Uiso   1.00
H117   H     0.52163   0.74286   0.06327   0.00000  Uiso   1.00
H118   H     0.47786   0.75629   0.05537   0.00000  Uiso   1.00
H119   H     0.49867   0.73419   0.02146   0.00000  Uiso   1.00
H120   H     0.46060   0.85819   0.98405   0.00000  Uiso   1.00
H121   H     0.49951   0.87578   0.97255   0.00000  Uiso   1.00
H122   H     0.48307   0.83493   0.95199   0.00000  Uiso   1.00
O123   O     0.48137   0.75698   0.95287   0.00000  Uiso   1.00
O124   O     0.44077   0.82517   0.04492   0.00000  Uiso   1.00
H125   H     0.37661   0.82119   0.04490   0.00000  Uiso   1.00
H126   H     0.43394   0.72356   0.91373   0.00000  Uiso   1.00
H127   H     0.31775   0.80134   0.02454   0.00000  Uiso   1.00
H128   H     0.27792   0.64589   0.94772   0.00000  Uiso   1.00
H129   H     0.29121   0.68457   0.97498   0.00000  Uiso   1.00
H130   H     0.20831   0.64791   0.92616   0.00000  Uiso   1.00
H131   H     0.37506   0.70345   0.89350   0.00000  Uiso   1.00
H132   H     0.22502   0.78102   0.88012   0.00000  Uiso   1.00
O133   O     0.31084   0.69833   0.89443   0.00000  Uiso   1.00
O134   O     0.27059   0.76720   0.98622   0.00000  Uiso   1.00
H135   H     0.25300   0.66194   0.98109   0.00000  Uiso   1.00
H136   H     0.57081   0.97591   0.22600   0.00000  Uiso   1.00
C137   C     0.41072   0.31797   0.32467   0.00000  Uiso   1.00
C138   C     0.41639   0.32037   0.29136   0.00000  Uiso   1.00
C139   C     0.43275   0.29391   0.27302   0.00000  Uiso   1.00
C140   C     0.44259   0.26470   0.28825   0.00000  Uiso   1.00
C141   C     0.43758   0.26301   0.32213   0.00000  Uiso   1.00
C142   C     0.42198   0.28978   0.34004   0.00000  Uiso   1.00
C143   C     0.43925   0.29657   0.23738   0.00000  Uiso   1.00
C144   C     0.44770   0.23221   0.33894   0.00000  Uiso   1.00
C145   C     0.49112   0.23238   0.27077   0.00000  Uiso   1.00
C146   C     0.50492   0.20141   0.25834   0.00000  Uiso   1.00
C147   C     0.48222   0.17417   0.24396   0.00000  Uiso   1.00
C148   C     0.44629   0.17856   0.24122   0.00000  Uiso   1.00
C149   C     0.43370   0.20999   0.25393   0.00000  Uiso   1.00
C150   C     0.54071   0.19668   0.26103   0.00000  Uiso   1.00
C151   C     0.55381   0.16523   0.24977   0.00000  Uiso   1.00
C152   C     0.53138   0.13780   0.23565   0.00000  Uiso   1.00
C153   C     0.49546   0.14227   0.23283   0.00000  Uiso   1.00
C154   C     0.47272   0.11483   0.21913   0.00000  Uiso   1.00
C155   C     0.43695   0.11964   0.21608   0.00000  Uiso   1.00
C156   C     0.42387   0.15119   0.22691   0.00000  Uiso   1.00
C157   C     0.54392   0.10590   0.22427   0.00000  Uiso   1.00
C158   C     0.48644   0.08322   0.20882   0.00000  Uiso   1.00
C159   C     0.53479   0.04720   0.19874   0.00000  Uiso   1.00
C160   C     0.52240   0.06131   0.13806   0.00000  Uiso   1.00
C161   C     0.54650   1.00615   0.15162   0.00000  Uiso   1.00
C162   C     0.54694   0.03317   0.25882   0.00000  Uiso   1.00
C163   C     0.56048   0.99314   0.20875   0.00000  Uiso   1.00
C164   C     0.54754   1.02446   0.22137   0.00000  Uiso   1.00
C165   C     0.53451   0.03792   0.16357   0.00000  Uiso   1.00
C166   C     0.55992   0.98387   0.17394   0.00000  Uiso   1.00
H167   H     0.52021   0.03872   0.26424   0.00000  Uiso   1.00
N168   N     0.45611   0.23573   0.26924   0.00000  Uiso   1.00
N169   N     0.52144   0.07938   0.21135   0.00000  Uiso   1.00
H170   H     0.56396   0.05572   0.26847   0.00000  Uiso   1.00
H171   H     0.40767   0.34241   0.27972   0.00000  Uiso   1.00
H172   H     0.41727   0.28813   0.36584   0.00000  Uiso   1.00
H173   H     0.43078   0.32122   0.22937   0.00000  Uiso   1.00
H174   H     0.46728   0.29449   0.23543   0.00000  Uiso   1.00
H175   H     0.42501   0.27576   0.21996   0.00000  Uiso   1.00
H176   H     0.47567   0.22790   0.33846   0.00000  Uiso   1.00
H177   H     0.44253   0.23526   0.36570   0.00000  Uiso   1.00
H178   H     0.43271   0.20956   0.32546   0.00000  Uiso   1.00
O179   O     0.39874   0.21430   0.25268   0.00000  Uiso   1.00
O180   O     0.51280   0.25884   0.28598   0.00000  Uiso   1.00
H181   H     0.55871   0.21715   0.27215   0.00000  Uiso   1.00
H182   H     0.39615   0.15393   0.22442   0.00000  Uiso   1.00
H183   H     0.58153   0.16241   0.25246   0.00000  Uiso   1.00
H184   H     0.49971   0.04946   0.12112   0.00000  Uiso   1.00
H185   H     0.51505   0.08655   0.14979   0.00000  Uiso   1.00
H186   H     0.54621   0.99920   0.12462   0.00000  Uiso   1.00
H187   H     0.41893   0.09902   0.20542   0.00000  Uiso   1.00
H188   H     0.55614   1.01194   0.27275   0.00000  Uiso   1.00
O189   O     0.46464   0.05610   0.19579   0.00000  Uiso   1.00
O190   O     0.57885   0.10137   0.22584   0.00000  Uiso   1.00
H191   H     0.54341   0.06551   0.12255   0.00000  Uiso   1.00
H192   H     0.43444   0.32008   0.46533   0.00000  Uiso   1.00
C193   C     0.78107   0.18295   0.60436   0.00000  Uiso   1.00
C194   C     0.78968   0.21489   0.59582   0.00000  Uiso   1.00
C195   C     0.76377   0.23609   0.58371   0.00000  Uiso   1.00
C196   C     0.72888   0.22491   0.57981   0.00000  Uiso   1.00
C197   C     0.72024   0.19270   0.58811   0.00000  Uiso   1.00
C198   C     0.74633   0.17211   0.60036   0.00000  Uiso   1.00
C199   C     0.77329   0.27050   0.57523   0.00000  Uiso   1.00
C200   C     0.68323   0.18018   0.58373   0.00000  Uiso   1.00
C201   C     0.69182   0.24224   0.53275   0.00000  Uiso   1.00
C202   C     0.66189   0.25777   0.51979   0.00000  Uiso   1.00
C203   C     0.64259   0.27719   0.54235   0.00000  Uiso   1.00
C204   C     0.65407   0.28172   0.57722   0.00000  Uiso   1.00
C205   C     0.68429   0.26582   0.58898   0.00000  Uiso   1.00
C206   C     0.65029   0.25350   0.48505   0.00000  Uiso   1.00
C207   C     0.61962   0.26793   0.47288   0.00000  Uiso   1.00
C208   C     0.59992   0.28692   0.49520   0.00000  Uiso   1.00
C209   C     0.61149   0.29171   0.53004   0.00000  Uiso   1.00
C210   C     0.59192   0.31078   0.55259   0.00000  Uiso   1.00
C211   C     0.60381   0.31547   0.58728   0.00000  Uiso   1.00
C212   C     0.63457   0.30113   0.59947   0.00000  Uiso   1.00
C213   C     0.56890   0.30143   0.48355   0.00000  Uiso   1.00
C214   C     0.56100   0.32483   0.53972   0.00000  Uiso   1.00
C215   C     0.52000   0.33668   0.49253   0.00000  Uiso   1.00
C216   C     0.55727   0.38830   0.48606   0.00000  Uiso   1.00
C217   C     0.49480   0.38217   0.46361   0.00000  Uiso   1.00
C218   C     0.48339   0.28576   0.50021   0.00000  Uiso   1.00
C219   C     0.45902   0.33384   0.47025   0.00000  Uiso   1.00
C220   C     0.48746   0.31963   0.48779   0.00000  Uiso   1.00
C221   C     0.52337   0.36862   0.48115   0.00000  Uiso   1.00
C222   C     0.46279   0.36460   0.45716   0.00000  Uiso   1.00
H223   H     0.49020   0.28854   0.52804   0.00000  Uiso   1.00
N224   N     0.70185   0.24577   0.56683   0.00000  Uiso   1.00
N225   N     0.55028   0.32011   0.50575   0.00000  Uiso   1.00
H226   H     0.50067   0.26712   0.48828   0.00000  Uiso   1.00
H227   H     0.81649   0.22342   0.59893   0.00000  Uiso   1.00
H228   H     0.73949   0.14729   0.60649   0.00000  Uiso   1.00
H229   H     0.80165   0.27545   0.57958   0.00000  Uiso   1.00
H230   H     0.76431   0.27218   0.54826   0.00000  Uiso   1.00
H231   H     0.76085   0.29040   0.59129   0.00000  Uiso   1.00
H232   H     0.67209   0.17941   0.55692   0.00000  Uiso   1.00
H233   H     0.68081   0.15425   0.59094   0.00000  Uiso   1.00
H234   H     0.66811   0.19750   0.59986   0.00000  Uiso   1.00
O235   O     0.69538   0.26909   0.62297   0.00000  Uiso   1.00
O236   O     0.71023   0.22213   0.51129   0.00000  Uiso   1.00
H237   H     0.66469   0.23876   0.46718   0.00000  Uiso   1.00
H238   H     0.64284   0.30502   0.62638   0.00000  Uiso   1.00
H239   H     0.61136   0.26401   0.44597   0.00000  Uiso   1.00
H240   H     0.55424   0.41368   0.50039   0.00000  Uiso   1.00
H241   H     0.57840   0.37558   0.50019   0.00000  Uiso   1.00
H242   H     0.49798   0.40614   0.45395   0.00000  Uiso   1.00
H243   H     0.58931   0.33009   0.60515   0.00000  Uiso   1.00
H244   H     0.45648   0.27546   0.49415   0.00000  Uiso   1.00
O245   O     0.54179   0.34389   0.56118   0.00000  Uiso   1.00
O246   O     0.55741   0.29730   0.44962   0.00000  Uiso   1.00
H247   H     0.56519   0.39174   0.46109   0.00000  Uiso   1.00
H248   H     0.67635   0.97230   0.07458   0.00000  Uiso   1.00
C249   C     0.77720   0.07131   0.73752   0.00000  Uiso   1.00
C250   C     0.75179   0.04533   0.72948   0.00000  Uiso   1.00
C251   C     0.73602   0.03245   0.75510   0.00000  Uiso   1.00
C252   C     0.74565   0.04609   0.78919   0.00000  Uiso   1.00
C253   C     0.77005   0.07327   0.79719   0.00000  Uiso   1.00
C254   C     0.78569   0.08548   0.77136   0.00000  Uiso   1.00
C255   C     0.70953   1.00390   0.74612   0.00000  Uiso   1.00
C256   C     0.77985   0.08890   0.83329   0.00000  Uiso   1.00
C257   C     0.75194   1.00688   0.83071   0.00000  Uiso   1.00
C258   C     0.74256   0.99465   0.85969   0.00000  Uiso   1.00
C259   C     0.71273   1.00697   0.87308   0.00000  Uiso   1.00
C260   C     0.69256   0.03088   0.85712   0.00000  Uiso   1.00
C261   C     0.70323   0.04272   0.82838   0.00000  Uiso   1.00
C262   C     0.76263   0.97096   0.87590   0.00000  Uiso   1.00
C263   C     0.75338   0.95989   0.90525   0.00000  Uiso   1.00
C264   C     0.72376   0.97210   0.91892   0.00000  Uiso   1.00
C265   C     0.70322   0.99556   0.90268   0.00000  Uiso   1.00
C266   C     0.67320   1.00759   0.91595   0.00000  Uiso   1.00
C267   C     0.65305   0.03114   0.89961   0.00000  Uiso   1.00
C268   C     0.66270   0.04277   0.87061   0.00000  Uiso   1.00
C269   C     0.71387   0.96116   0.94829   0.00000  Uiso   1.00
C270   C     0.66397   0.99539   0.94507   0.00000  Uiso   1.00
C271   C     0.67296   0.95797   0.98848   0.00000  Uiso   1.00
C272   C     0.64851   0.90576   0.94823   0.00000  Uiso   1.00
C273   C     0.64964   0.90968   0.01061   0.00000  Uiso   1.00
C274   C     0.69713   1.00983   0.02822   0.00000  Uiso   1.00
C275   C     0.67092   0.95944   0.04903   0.00000  Uiso   1.00
C276   C     0.67962   0.97526   0.02171   0.00000  Uiso   1.00
C277   C     0.65713   0.92522   0.98300   0.00000  Uiso   1.00
C278   C     0.65686   0.92634   0.04362   0.00000  Uiso   1.00
H279   H     0.68125   0.02812   0.01486   0.00000  Uiso   1.00
N280   N     0.73271   0.03097   0.81611   0.00000  Uiso   1.00
N281   N     0.68422   0.97253   0.96049   0.00000  Uiso   1.00
H282   H     0.72285   1.00843   0.01905   0.00000  Uiso   1.00
H283   H     0.74495   0.03452   0.70338   0.00000  Uiso   1.00
H284   H     0.80504   0.10581   0.77777   0.00000  Uiso   1.00
H285   H     0.70519   0.99574   0.71846   0.00000  Uiso   1.00
H286   H     0.71825   0.98168   0.75875   0.00000  Uiso   1.00
H287   H     0.68458   1.01229   0.75453   0.00000  Uiso   1.00
H288   H     0.79134   0.06953   0.84855   0.00000  Uiso   1.00
H289   H     0.79896   0.11024   0.83531   0.00000  Uiso   1.00
H290   H     0.75656   0.09891   0.84409   0.00000  Uiso   1.00
O291   O     0.68457   0.06686   0.81315   0.00000  Uiso   1.00
O292   O     0.78121   0.99546   0.81761   0.00000  Uiso   1.00
H293   H     0.78568   0.96108   0.86611   0.00000  Uiso   1.00
H294   H     0.64672   0.06114   0.85884   0.00000  Uiso   1.00
H295   H     0.76950   0.94169   0.91714   0.00000  Uiso   1.00
H296   H     0.62062   0.89846   0.94397   0.00000  Uiso   1.00
H297   H     0.65389   0.92061   0.92781   0.00000  Uiso   1.00
H298   H     0.63805   0.88428   0.00626   0.00000  Uiso   1.00
H299   H     0.62984   0.04079   0.90926   0.00000  Uiso   1.00
H300   H     0.70090   0.01962   0.05556   0.00000  Uiso   1.00
O301   O     0.63412   1.00583   0.95763   0.00000  Uiso   1.00
O302   O     0.73355   0.93821   0.96436   0.00000  Uiso   1.00
H303   H     0.66379   0.88234   0.94618   0.00000  Uiso   1.00
H304   H     0.71380   0.85454   0.21828   0.00000  Uiso   1.00
C305   C     0.82206   0.04828   0.56430   0.00000  Uiso   1.00
C306   C     0.79021   0.05970   0.55071   0.00000  Uiso   1.00
C307   C     0.77344   0.04391   0.51973   0.00000  Uiso   1.00
C308   C     0.78774   0.01485   0.50310   0.00000  Uiso   1.00
C309   C     0.81781   0.00102   0.51880   0.00000  Uiso   1.00
C310   C     0.83511   0.01829   0.54893   0.00000  Uiso   1.00
C311   C     0.74223   0.06002   0.50315   0.00000  Uiso   1.00
C312   C     0.83264   0.96910   0.50255   0.00000  Uiso   1.00
C313   C     0.79250   0.01200   0.44334   0.00000  Uiso   1.00
C314   C     0.78068   1.00127   0.40924   0.00000  Uiso   1.00
C315   C     0.74969   0.98191   0.40101   0.00000  Uiso   1.00
C316   C     0.73132   0.97320   0.42692   0.00000  Uiso   1.00
C317   C     0.74489  -0.01656   0.46082   0.00000  Uiso   1.00
C318   C     0.79912   1.00941   0.38328   0.00000  Uiso   1.00
C319   C     0.78718   0.99810   0.34955   0.00000  Uiso   1.00
C320   C     0.75627   0.97882   0.34100   0.00000  Uiso   1.00
C321   C     0.73720   0.97108   0.36679   0.00000  Uiso   1.00
C322   C     0.70594   0.95215   0.35843   0.00000  Uiso   1.00
C323   C     0.68734   0.94429   0.38441   0.00000  Uiso   1.00
C324   C     0.69998   0.95452   0.41828   0.00000  Uiso   1.00
C325   C     0.74433   0.96632   0.30731   0.00000  Uiso   1.00
C326   C     0.69458   0.94087   0.32425   0.00000  Uiso   1.00
C327   C     0.70527   0.93077   0.26561   0.00000  Uiso   1.00
C328   C     0.67656  -0.01575   0.24752   0.00000  Uiso   1.00
C329   C     0.67978   0.93136   0.20725   0.00000  Uiso   1.00
C330   C     0.73496   0.87814   0.28326   0.00000  Uiso   1.00
C331   C     0.70661   0.88068   0.22434   0.00000  Uiso   1.00
C332   C     0.71511   0.89695   0.25726   0.00000  Uiso   1.00
C333   C     0.68760   0.94814   0.24031   0.00000  Uiso   1.00
C334   C     0.68892   0.89757   0.19921   0.00000  Uiso   1.00
H335   H     0.71972   0.87628   0.30455   0.00000  Uiso   1.00
N336   N     0.77486   0.00269   0.46840   0.00000  Uiso   1.00
N337   N     0.71430   0.94726   0.29964   0.00000  Uiso   1.00
H338   H     0.75987   0.89180   0.29288   0.00000  Uiso   1.00
H339   H     0.78037   0.08323   0.56222   0.00000  Uiso   1.00
H340   H     0.85987   1.00960   0.55928   0.00000  Uiso   1.00
H341   H     0.73495   0.08324   0.51894   0.00000  Uiso   1.00
H342   H     0.74773   0.06737   0.47854   0.00000  Uiso   1.00
H343   H     0.71984   0.04187   0.49887   0.00000  Uiso   1.00
H344   H     0.84063   0.97312   0.47778   0.00000  Uiso   1.00
H345   H     0.85563   0.96121   0.51849   0.00000  Uiso   1.00
H346   H     0.81293   0.94814   0.49877   0.00000  Uiso   1.00
O347   O     0.72799  -0.02583   0.48640   0.00000  Uiso   1.00
O348   O     0.82194   0.03209   0.45161   0.00000  Uiso   1.00
H349   H     0.82306   1.02424   0.38893   0.00000  Uiso   1.00
H350   H     0.68510   0.94778   0.43762   0.00000  Uiso   1.00
H351   H     0.80230   1.00441   0.33021   0.00000  Uiso   1.00
H352   H     0.64807  -0.01477   0.24171   0.00000  Uiso   1.00
H353   H     0.68381  -0.00472   0.27422   0.00000  Uiso   1.00
H354   H     0.66614   0.94458   0.18796   0.00000  Uiso   1.00
H355   H     0.66320   0.92981   0.37867   0.00000  Uiso   1.00
H356   H     0.74069   0.85191   0.27254   0.00000  Uiso   1.00
O357   O     0.66431   0.92214   0.31561   0.00000  Uiso   1.00
O358   O     0.76347   0.97222   0.28204   0.00000  Uiso   1.00
H359   H     0.68882   0.00019   0.23122   0.00000  Uiso   1.00
H360   H     0.14709   0.54634   0.75217   0.00000  Uiso   1.00
C361   C     0.36064   0.45115   0.46245   0.00000  Uiso   1.00
C362   C     0.38014   0.46787   0.49154   0.00000  Uiso   1.00
C363   C     0.36529   0.47600   0.52145   0.00000  Uiso   1.00
C364   C     0.33042   0.46692   0.52245   0.00000  Uiso   1.00
C365   C     0.31076   0.44968   0.49336   0.00000  Uiso   1.00
C366   C     0.32602   0.44215   0.46349   0.00000  Uiso   1.00
C367   C     0.38658   0.49447   0.55220   0.00000  Uiso   1.00
C368   C     0.27368   0.43943   0.49410   0.00000  Uiso   1.00
C369   C     0.30145   0.50829   0.55794   0.00000  Uiso   1.00
C370   C     0.28811   0.51939   0.58821   0.00000  Uiso   1.00
C371   C     0.28819   0.49727   0.61296   0.00000  Uiso   1.00
C372   C     0.30149   0.46451   0.60708   0.00000  Uiso   1.00
C373   C     0.31485   0.45461   0.57646   0.00000  Uiso   1.00
C374   C     0.27498   0.55207   0.59438   0.00000  Uiso   1.00
C375   C     0.26196   0.56265   0.62471   0.00000  Uiso   1.00
C376   C     0.26171   0.54075   0.64950   0.00000  Uiso   1.00
C377   C     0.27489   0.50795   0.64365   0.00000  Uiso   1.00
C378   C     0.27450   0.48572   0.66826   0.00000  Uiso   1.00
C379   C     0.28791   0.45312   0.66218   0.00000  Uiso   1.00
C380   C     0.30134   0.44266   0.63196   0.00000  Uiso   1.00
C381   C     0.24807   0.55062   0.67987   0.00000  Uiso   1.00
C382   C     0.26018   0.49659   0.69814   0.00000  Uiso   1.00
C383   C     0.22930   0.53807   0.73216   0.00000  Uiso   1.00
C384   C     0.28610   0.55812   0.76810   0.00000  Uiso   1.00
C385   C     0.22885   0.56644   0.78950   0.00000  Uiso   1.00
C386   C     0.17333   0.51640   0.69678   0.00000  Uiso   1.00
C387   C     0.17506   0.54801   0.75520   0.00000  Uiso   1.00
C388   C     0.19300   0.53428   0.72880   0.00000  Uiso   1.00
C389   C     0.24740   0.55366   0.76300   0.00000  Uiso   1.00
C390   C     0.19273   0.56463   0.78525   0.00000  Uiso   1.00
H391   H     0.18295   0.49028   0.69153   0.00000  Uiso   1.00
N392   N     0.31474   0.47656   0.55277   0.00000  Uiso   1.00
N393   N     0.24703   0.52840   0.70317   0.00000  Uiso   1.00
H394   H     0.17686   0.53054   0.67528   0.00000  Uiso   1.00
H395   H     0.40700   0.47471   0.49089   0.00000  Uiso   1.00
H396   H     0.31096   0.42913   0.44106   0.00000  Uiso   1.00
H397   H     0.41354   0.49933   0.54750   0.00000  Uiso   1.00
H398   H     0.37507   0.51931   0.55962   0.00000  Uiso   1.00
H399   H     0.38731   0.47905   0.57343   0.00000  Uiso   1.00
H400   H     0.25860   0.46225   0.50095   0.00000  Uiso   1.00
H401   H     0.26176   0.42653   0.46920   0.00000  Uiso   1.00
H402   H     0.27211   0.42164   0.51306   0.00000  Uiso   1.00
O403   O     0.32853   0.42303   0.57048   0.00000  Uiso   1.00
O404   O     0.30171   0.52960   0.53361   0.00000  Uiso   1.00
H405   H     0.27472   0.56957   0.57579   0.00000  Uiso   1.00
H406   H     0.31147   0.41738   0.62812   0.00000  Uiso   1.00
H407   H     0.25190   0.58797   0.62855   0.00000  Uiso   1.00
H408   H     0.29693   0.54468   0.78941   0.00000  Uiso   1.00
H409   H     0.29818   0.54798   0.74545   0.00000  Uiso   1.00
H410   H     0.24249   0.57942   0.81275   0.00000  Uiso   1.00
H411   H     0.28800   0.43557   0.68070   0.00000  Uiso   1.00
H412   H     0.14524   0.51437   0.69871   0.00000  Uiso   1.00
O413   O     0.25867   0.47499   0.72203   0.00000  Uiso   1.00
O414   O     0.23478   0.58238   0.68581   0.00000  Uiso   1.00
H415   H     0.29326   0.58556   0.77422   0.00000  Uiso   1.00
H416   H     0.34226   0.46860   0.30752   0.00000  Uiso   1.00
C417   C     0.19795   0.54672   0.96294   0.00000  Uiso   1.00
C418   C     0.18918   0.51285   0.96533   0.00000  Uiso   1.00
C419   C     0.19902   0.49865   0.99511   0.00000  Uiso   1.00
C420   C     0.21858   0.51846   0.02270   0.00000  Uiso   1.00
C421   C     0.22914   0.55197   0.01967   0.00000  Uiso   1.00
C422   C     0.21854   0.56588   0.98987   0.00000  Uiso   1.00
C423   C     0.18748   0.46292   0.99784   0.00000  Uiso   1.00
C424   C     0.25100   0.57310   0.04837   0.00000  Uiso   1.00
C425   C     0.25419   0.48517   0.05929   0.00000  Uiso   1.00
C426   C     0.26198   0.47199   0.09004   0.00000  Uiso   1.00
C427   C     0.24090   0.48006   0.11587   0.00000  Uiso   1.00
C428   C     0.21214   0.50060   0.11041   0.00000  Uiso   1.00
C429   C     0.20506   0.51277   0.07904   0.00000  Uiso   1.00
C430   C     0.29040   0.45120   0.09564   0.00000  Uiso   1.00
C431   C     0.29809   0.43896   0.12665   0.00000  Uiso   1.00
C432   C     0.27763   0.44738   0.15279   0.00000  Uiso   1.00
C433   C     0.24883   0.46788   0.14736   0.00000  Uiso   1.00
C434   C     0.22829   0.47664   0.17352   0.00000  Uiso   1.00
C435   C     0.19944   0.49686   0.16766   0.00000  Uiso   1.00
C436   C     0.19139   0.50862   0.13641   0.00000  Uiso   1.00
C437   C     0.28579   0.43660   0.18464   0.00000  Uiso   1.00
C438   C     0.23778   0.46564   0.20517   0.00000  Uiso   1.00
C439   C     0.27907   0.43978   0.24388   0.00000  Uiso   1.00
C440   C     0.24152   0.38552   0.23653   0.00000  Uiso   1.00
C441   C     0.28594   0.40106   0.28663   0.00000  Uiso   1.00
C442   C     0.31479   0.49469   0.25179   0.00000  Uiso   1.00
C443   C     0.32151   0.45241   0.29336   0.00000  Uiso   1.00
C444   C     0.30457   0.46181   0.26345   0.00000  Uiso   1.00
C445   C     0.26903   0.40962   0.25603   0.00000  Uiso   1.00
C446   C     0.31302   0.42175   0.30464   0.00000  Uiso   1.00
H447   H     0.29186   0.51072   0.24831   0.00000  Uiso   1.00
N448   N     0.22618   0.50517   0.05440   0.00000  Uiso   1.00
N449   N     0.26652   0.44663   0.21029   0.00000  Uiso   1.00
H450   H     0.32570   0.48954   0.22748   0.00000  Uiso   1.00
H451   H     0.17330   0.49796   0.94454   0.00000  Uiso   1.00
H452   H     0.22559   0.59200   0.98796   0.00000  Uiso   1.00
H453   H     0.17115   0.45135   0.97457   0.00000  Uiso   1.00
H454   H     0.21032   0.44692   0.00195   0.00000  Uiso   1.00
H455   H     0.17215   0.46296   0.01936   0.00000  Uiso   1.00
H456   H     0.27572   0.56036   0.05434   0.00000  Uiso   1.00
H457   H     0.25701   0.59878   0.04205   0.00000  Uiso   1.00
H458   H     0.23722   0.57626   0.07109   0.00000  Uiso   1.00
O459   O     0.17692   0.53255   0.07313   0.00000  Uiso   1.00
O460   O     0.27483   0.47809   0.03409   0.00000  Uiso   1.00
H461   H     0.30690   0.44446   0.07616   0.00000  Uiso   1.00
H462   H     0.16906   0.52429   0.13284   0.00000  Uiso   1.00
H463   H     0.32037   0.42325   0.13018   0.00000  Uiso   1.00
H464   H     0.22022   0.38293   0.25208   0.00000  Uiso   1.00
H465   H     0.23039   0.39424   0.21253   0.00000  Uiso   1.00
H466   H     0.27939   0.37731   0.29531   0.00000  Uiso   1.00
H467   H     0.18315   0.50389   0.18726   0.00000  Uiso   1.00
H468   H     0.33450   0.50942   0.27037   0.00000  Uiso   1.00
O469   O     0.21894   0.47503   0.23137   0.00000  Uiso   1.00
O470   O     0.31425   0.41724   0.19056   0.00000  Uiso   1.00
H471   H     0.25258   0.36017   0.23043   0.00000  Uiso   1.00
H472   H     0.98417   0.20160   0.62232   0.00000  Uiso   1.00
C473   C     0.27981   0.32155   0.43904   0.00000  Uiso   1.00
C474   C     0.25554   0.29953   0.41824   0.00000  Uiso   1.00
C475   C     0.22681   0.28674   0.43094   0.00000  Uiso   1.00
C476   C     0.22259   0.29559   0.46530   0.00000  Uiso   1.00
C477   C     0.24739   0.31713   0.48662   0.00000  Uiso   1.00
C478   C     0.27573   0.33004   0.47324   0.00000  Uiso   1.00
C479   C     0.20024   0.26457   0.40754   0.00000  Uiso   1.00
C480   C     0.24341   0.32674   0.52337   0.00000  Uiso   1.00
C481   C     0.19283   0.25105   0.48772   0.00000  Uiso   1.00
C482   C     0.16341   0.23766   0.49895   0.00000  Uiso   1.00
C483   C     0.13406   0.25779   0.50090   0.00000  Uiso   1.00
C484   C     0.13454   0.29080   0.49159   0.00000  Uiso   1.00
C485   C     0.16439   0.30293   0.48006   0.00000  Uiso   1.00
C486   C     0.16256   0.20468   0.50807   0.00000  Uiso   1.00
C487   C     0.13299   0.19187   0.51906   0.00000  Uiso   1.00
C488   C     0.10361   0.21177   0.52122   0.00000  Uiso   1.00
C489   C     0.10415   0.24486   0.51212   0.00000  Uiso   1.00
C490   C     0.07487   0.26506   0.51428   0.00000  Uiso   1.00
C491   C     0.07573   0.29804   0.50515   0.00000  Uiso   1.00
C492   C     0.10519   0.31073   0.49383   0.00000  Uiso   1.00
C493   C     0.07368   0.19950   0.53245   0.00000  Uiso   1.00
C494   C     0.04553   0.25172   0.52575   0.00000  Uiso   1.00
C495   C     0.01563   0.20679   0.54751   0.00000  Uiso   1.00
C496   C     0.98999   0.18167   0.48788   0.00000  Uiso   1.00
C497   C     0.96098   0.17463   0.53885   0.00000  Uiso   1.00
C498   C     0.04146   0.23169   0.60651   0.00000  Uiso   1.00
C499   C     0.98530   0.19818   0.59532   0.00000  Uiso   1.00
C500   C     0.01344   0.21205   0.58256   0.00000  Uiso   1.00
C501   C     0.98902   0.18814   0.52549   0.00000  Uiso   1.00
C502   C     0.95918   0.17913   0.57374   0.00000  Uiso   1.00
H503   H     0.04454   0.25759   0.59945   0.00000  Uiso   1.00
N504   N     0.19273   0.28303   0.47832   0.00000  Uiso   1.00
N505   N     0.04550   0.21955   0.53467   0.00000  Uiso   1.00
H506   H     0.06624   0.21842   0.60545   0.00000  Uiso   1.00
H507   H     0.25842   0.29313   0.39175   0.00000  Uiso   1.00
H508   H     0.29440   0.34708   0.48942   0.00000  Uiso   1.00
H509   H     0.20714   0.26038   0.38136   0.00000  Uiso   1.00
H510   H     0.19803   0.23939   0.41643   0.00000  Uiso   1.00
H511   H     0.17478   0.27680   0.40683   0.00000  Uiso   1.00
H512   H     0.24173   0.30350   0.53587   0.00000  Uiso   1.00
H513   H     0.26559   0.34273   0.53689   0.00000  Uiso   1.00
H514   H     0.21956   0.34132   0.52578   0.00000  Uiso   1.00
O515   O     0.16500   0.33473   0.47011   0.00000  Uiso   1.00
O516   O     0.22169   0.23181   0.48577   0.00000  Uiso   1.00
H517   H     0.18471   0.18862   0.50664   0.00000  Uiso   1.00
H518   H     0.10489   0.33621   0.48688   0.00000  Uiso   1.00
H519   H     0.13329   0.16637   0.52592   0.00000  Uiso   1.00
H520   H     0.96727   0.19311   0.47468   0.00000  Uiso   1.00
H521   H     0.01356   0.19255   0.48001   0.00000  Uiso   1.00
H522   H     0.94094   0.15988   0.52200   0.00000  Uiso   1.00
H523   H     0.05365   0.31418   0.50671   0.00000  Uiso   1.00
H524   H     0.03544   0.23433   0.63300   0.00000  Uiso   1.00
O525   O     0.01689   0.27116   0.52835   0.00000  Uiso   1.00
O526   O     0.07281   0.16737   0.54160   0.00000  Uiso   1.00
H527   H     0.98915   0.15389   0.47950   0.00000  Uiso   1.00
H528   H     0.05194   0.67080   0.71964   0.00000  Uiso   1.00
C529   C     0.92483   0.03658   0.66188   0.00000  Uiso   1.00
C530   C     0.93656   0.03066   0.69482   0.00000  Uiso   1.00
C531   C     0.95259   0.00016   0.70078   0.00000  Uiso   1.00
C532   C     0.95593   0.97493   0.67329   0.00000  Uiso   1.00
C533   C     0.94486   0.98134   0.63998   0.00000  Uiso   1.00
C534   C     0.92979   0.01237   0.63458   0.00000  Uiso   1.00
C535   C     0.96530  -0.00569   0.73638   0.00000  Uiso   1.00
C536   C     0.94774   0.95474   0.61033   0.00000  Uiso   1.00
C537   C     0.94677   0.91863   0.68833   0.00000  Uiso   1.00
C538   C     0.95868   0.88672   0.69528   0.00000  Uiso   1.00
C539   C     0.99325   0.87881   0.69193   0.00000  Uiso   1.00
C540   C     0.01537   0.90290   0.68191   0.00000  Uiso   1.00
C541   C     1.00253   0.93488   0.67611   0.00000  Uiso   1.00
C542   C     0.93695   0.86275   0.70581   0.00000  Uiso   1.00
C543   C     0.94959   0.83157   0.71359   0.00000  Uiso   1.00
C544   C     0.98410   0.82348   0.71057   0.00000  Uiso   1.00
C545   C     0.00587   0.84694   0.69914   0.00000  Uiso   1.00
C546   C     0.04041   0.83892   0.69568   0.00000  Uiso   1.00
C547   C     0.06205   0.86284   0.68487   0.00000  Uiso   1.00
C548   C     0.04972   0.89455   0.67827   0.00000  Uiso   1.00
C549   C     0.99780   0.79297   0.71986   0.00000  Uiso   1.00
C550   C     0.05270   0.80759   0.70430   0.00000  Uiso   1.00
C551   C     0.04667   0.75764   0.73257   0.00000  Uiso   1.00
C552   C     0.07068   0.79846   0.78492   0.00000  Uiso   1.00
C553   C     0.08110   0.73642   0.77945   0.00000  Uiso   1.00
C554   C     0.02163   0.71701   0.68143   0.00000  Uiso   1.00
C555   C     0.05592   0.69672   0.73191   0.00000  Uiso   1.00
C556   C     0.04170   0.72393   0.71599   0.00000  Uiso   1.00
C557   C     0.06605   0.76362   0.76487   0.00000  Uiso   1.00
C558   C     0.07596   0.70306   0.76341   0.00000  Uiso   1.00
H559   H     0.03353   0.73160   0.66378   0.00000  Uiso   1.00
N560   N     0.96878   0.94209   0.67935   0.00000  Uiso   1.00
N561   N     0.03171   0.78590   0.71725   0.00000  Uiso   1.00
H562   H    -0.00545   0.72479   0.68248   0.00000  Uiso   1.00
H563   H     0.93255   0.04957   0.71581   0.00000  Uiso   1.00
H564   H     0.92029   0.01703   0.60918   0.00000  Uiso   1.00
H565   H     0.96250   0.01718   0.75476   0.00000  Uiso   1.00
H566   H     0.95040  -0.02703   0.74359   0.00000  Uiso   1.00
H567   H     0.99306  -0.01199   0.73826   0.00000  Uiso   1.00
H568   H     0.93257   0.93155   0.61285   0.00000  Uiso   1.00
H569   H     0.93777   0.96379   0.58607   0.00000  Uiso   1.00
H570   H     0.97517   0.94821   0.60926   0.00000  Uiso   1.00
O571   O     0.02399   0.95906   0.66739   0.00000  Uiso   1.00
O572   O     0.91296   0.92646   0.69086   0.00000  Uiso   1.00
H573   H     0.91027   0.86820   0.70863   0.00000  Uiso   1.00
H574   H     0.06725   0.91255   0.67050   0.00000  Uiso   1.00
H575   H     0.93229   0.81394   0.72222   0.00000  Uiso   1.00
H576   H     0.09840   0.80627   0.78851   0.00000  Uiso   1.00
H577   H     0.05576   0.81808   0.77273   0.00000  Uiso   1.00
H578   H     0.09599   0.74119   0.80422   0.00000  Uiso   1.00
H579   H     0.08874   0.85737   0.68203   0.00000  Uiso   1.00
H580   H     0.02132   0.68963   0.67131   0.00000  Uiso   1.00
O581   O     0.08648   0.79961   0.70168   0.00000  Uiso   1.00
O582   O     0.97756   0.77101   0.73336   0.00000  Uiso   1.00
H583   H     0.06181   0.79780   0.81005   0.00000  Uiso   1.00
H584   H     0.93394   0.18258   0.71224   0.00000  Uiso   1.00
C585   C     0.05845   0.54377   0.83494   0.00000  Uiso   1.00
C586   C     0.04137   0.54803   0.80320   0.00000  Uiso   1.00
C587   C     0.01871   0.52235   0.78510   0.00000  Uiso   1.00
C588   C     0.01470   0.49132   0.79838   0.00000  Uiso   1.00
C589   C     0.03194   0.48731   0.83055   0.00000  Uiso   1.00
C590   C     0.05275   0.51386   0.84876   0.00000  Uiso   1.00
C591   C     0.99908   0.52818   0.75189   0.00000  Uiso   1.00
C592   C     0.02999   0.45417   0.84494   0.00000  Uiso   1.00
C593   C     0.00986   0.44382   0.75349   0.00000  Uiso   1.00
C594   C    -0.00493   0.41214   0.73876   0.00000  Uiso   1.00
C595   C     0.96623   0.39945   0.75159   0.00000  Uiso   1.00
C596   C     0.95094   0.41967   0.77685   0.00000  Uiso   1.00
C597   C     0.96513   0.45225   0.78903   0.00000  Uiso   1.00
C598   C     0.00934   0.39224   0.71266   0.00000  Uiso   1.00
C599   C    -0.00449   0.35989   0.69992   0.00000  Uiso   1.00
C600   C     0.96782   0.34630   0.71374   0.00000  Uiso   1.00
C601   C     0.95326   0.36613   0.73979   0.00000  Uiso   1.00
C602   C     0.92612   0.35251   0.75447   0.00000  Uiso   1.00
C603   C     0.91101   0.37288   0.77966   0.00000  Uiso   1.00
C604   C     0.92294   0.40628   0.79037   0.00000  Uiso   1.00
C605   C     0.95434   0.31328   0.70233   0.00000  Uiso   1.00
C606   C     0.91495   0.31871   0.74367   0.00000  Uiso   1.00
C607   C     0.91531   0.26589   0.70613   0.00000  Uiso   1.00
C608   C     0.86032   0.28996   0.67788   0.00000  Uiso   1.00
C609   C     0.86641   0.22816   0.68265   0.00000  Uiso   1.00
C610   C     0.97005   0.24169   0.73392   0.00000  Uiso   1.00
C611   C     0.91952   0.20452   0.70582   0.00000  Uiso   1.00
C612   C     0.93447   0.23735   0.71445   0.00000  Uiso   1.00
C613   C     0.88140   0.26091   0.68902   0.00000  Uiso   1.00
C614   C     0.88526   0.19998   0.69096   0.00000  Uiso   1.00
H615   H     0.96897   0.25783   0.75840   0.00000  Uiso   1.00
N616   N    -0.00475   0.46283   0.77876   0.00000  Uiso   1.00
N617   N     0.92881   0.29991   0.71777   0.00000  Uiso   1.00
H618   H     0.98798   0.25373   0.71928   0.00000  Uiso   1.00
H619   H     0.04601   0.57114   0.79250   0.00000  Uiso   1.00
H620   H     0.06655   0.51021   0.87302   0.00000  Uiso   1.00
H621   H     1.00373   0.55435   0.74610   0.00000  Uiso   1.00
H622   H     1.00705   0.51006   0.73107   0.00000  Uiso   1.00
H623   H     0.97099   0.52461   0.75292   0.00000  Uiso   1.00
H624   H     0.03768   0.43304   0.82673   0.00000  Uiso   1.00
H625   H     0.04749   0.45450   0.86890   0.00000  Uiso   1.00
H626   H     0.00339   0.44917   0.85047   0.00000  Uiso   1.00
O627   O     0.95014   0.47258   0.81315   0.00000  Uiso   1.00
O628   O     0.04038   0.45461   0.74410   0.00000  Uiso   1.00
H629   H     0.03135   0.40150   0.70212   0.00000  Uiso   1.00
H630   H     0.91080   0.42118   0.80995   0.00000  Uiso   1.00
H631   H     0.00710   0.34526   0.67978   0.00000  Uiso   1.00
H632   H     0.83933   0.29505   0.69402   0.00000  Uiso   1.00
H633   H     0.87610   0.31360   0.67914   0.00000  Uiso   1.00
H634   H     0.83996   0.22457   0.67072   0.00000  Uiso   1.00
H635   H     0.88991   0.36309   0.79115   0.00000  Uiso   1.00
H636   H     0.98084   0.21692   0.73931   0.00000  Uiso   1.00
O637   O     0.88978   0.30448   0.75902   0.00000  Uiso   1.00
O638   O     0.96666   0.29443   0.67549   0.00000  Uiso   1.00
H639   H     0.84860   0.28335   0.65125   0.00000  Uiso   1.00
H640   H     0.07860   0.63494   0.96333   0.00000  Uiso   1.00
C641   C     0.72516   0.77428   0.06306   0.00000  Uiso   1.00
C642   C     0.72900   0.77334   0.02876   0.00000  Uiso   1.00
C643   C     0.75824   0.75887   1.01600   0.00000  Uiso   1.00
C644   C     0.78352   0.74463   0.03786   0.00000  Uiso   1.00
C645   C     0.77849   0.74361   0.07186   0.00000  Uiso   1.00
C646   C     0.74955   0.75875   0.08421   0.00000  Uiso   1.00
C647   C     0.76317   0.75990   0.97961   0.00000  Uiso   1.00
C648   C     0.80432   0.72718   0.09519   0.00000  Uiso   1.00
C649   C     0.84328   0.75659   0.03211   0.00000  Uiso   1.00
C650   C     0.87540   0.74685   1.02222   0.00000  Uiso   1.00
C651   C     0.87878   0.71366   1.00612   0.00000  Uiso   1.00
C652   C     0.85024   0.69069   1.00048   0.00000  Uiso   1.00
C653   C     0.81867   0.70150   1.01113   0.00000  Uiso   1.00
C654   C     0.90408   0.76948   1.02799   0.00000  Uiso   1.00
C655   C     0.93563   0.75943   1.01743   0.00000  Uiso   1.00
C656   C     0.93916   0.72657   1.00078   0.00000  Uiso   1.00
C657   C     0.91070   0.70351   0.99534   0.00000  Uiso   1.00
C658   C     0.91392   0.67053   0.97862   0.00000  Uiso   1.00
C659   C     0.88539   0.64771   0.97343   0.00000  Uiso   1.00
C660   C     0.85392   0.65767   0.98429   0.00000  Uiso   1.00
C661   C     0.97020   0.71638   0.98860   0.00000  Uiso   1.00
C662   C     0.94540   0.66156   0.96668   0.00000  Uiso   1.00
C663   C     0.00246   0.67665   0.95436   0.00000  Uiso   1.00
C664   C     0.97514   0.70379   0.90348   0.00000  Uiso   1.00
C665   C     0.03133   0.67480   0.90402   0.00000  Uiso   1.00
C666   C     0.02960   0.65064   1.00513   0.00000  Uiso   1.00
C667   C     0.05792   0.64924   0.95187   0.00000  Uiso   1.00
C668   C     0.03014   0.65926   0.96988   0.00000  Uiso   1.00
C669   C     0.00350   0.68492   0.92138   0.00000  Uiso   1.00
C670   C     0.05834   0.65639   0.91865   0.00000  Uiso   1.00
H671   H     1.00760   0.63284   1.00565   0.00000  Uiso   1.00
N672   N     0.81577   0.73397   0.02645   0.00000  Uiso   1.00
N673   N     0.97249   0.68465   0.97128   0.00000  Uiso   1.00
H674   H     0.02666   0.67414   1.02260   0.00000  Uiso   1.00
H675   H     0.71030   0.78563   0.01249   0.00000  Uiso   1.00
H676   H     0.74650   0.75935   0.11072   0.00000  Uiso   1.00
H677   H     0.74157   0.77254   0.96598   0.00000  Uiso   1.00
H678   H     0.78748   0.77409   0.97806   0.00000  Uiso   1.00
H679   H     0.76461   0.73364   0.96668   0.00000  Uiso   1.00
H680   H     0.83010   0.73982   0.09690   0.00000  Uiso   1.00
H681   H     0.79675   0.72888   0.12109   0.00000  Uiso   1.00
H682   H     0.80615   0.69991   0.08540   0.00000  Uiso   1.00
O683   O     0.79067   0.67941   1.00619   0.00000  Uiso   1.00
O684   O     0.83945   0.78897   0.04759   0.00000  Uiso   1.00
H685   H     0.90221   0.79508   0.04051   0.00000  Uiso   1.00
H686   H     0.83244   0.63950   0.97973   0.00000  Uiso   1.00
H687   H     0.95710   0.77762   1.02200   0.00000  Uiso   1.00
H688   H     0.96381   0.68776   0.88000   0.00000  Uiso   1.00
H689   H     0.95400   0.71065   0.91892   0.00000  Uiso   1.00
H690   H     0.03146   0.68087   0.87850   0.00000  Uiso   1.00
H691   H     0.88720   0.62218   0.96072   0.00000  Uiso   1.00
H692   H     0.05379   0.63852   1.01434   0.00000  Uiso   1.00
O693   O     0.94858   0.62996   0.94918   0.00000  Uiso   1.00
O694   O     0.99785   0.73885   0.99269   0.00000  Uiso   1.00
H695   H    -0.01400   0.72763   0.89670   0.00000  Uiso   1.00
H696   H     0.50877   0.47161   0.33200   0.00000  Uiso   1.00
C697   C     0.59430   0.80206   0.18277   0.00000  Uiso   1.00
C698   C     0.56109   0.80432   0.19247   0.00000  Uiso   1.00
C699   C     0.54782   0.77866   0.20872   0.00000  Uiso   1.00
C700   C     0.56868   0.75113   0.21627   0.00000  Uiso   1.00
C701   C     0.60288   0.74999   0.20830   0.00000  Uiso   1.00
C702   C     0.61529   0.77536   0.19140   0.00000  Uiso   1.00
C703   C     0.51109   0.77979   0.21642   0.00000  Uiso   1.00
C704   C     0.62564   0.72109   0.21658   0.00000  Uiso   1.00
C705   C     0.53983   0.69597   0.20780   0.00000  Uiso   1.00
C706   C     0.52954   0.66629   0.21992   0.00000  Uiso   1.00
C707   C     0.53430   0.66481   0.25496   0.00000  Uiso   1.00
C708   C     0.54849   0.69314   0.27727   0.00000  Uiso   1.00
C709   C     0.55850   0.72226   0.26394   0.00000  Uiso   1.00
C710   C     0.51522   0.63797   0.19790   0.00000  Uiso   1.00
C711   C     0.50597   0.60840   0.21050   0.00000  Uiso   1.00
C712   C     0.51080   0.60656   0.24539   0.00000  Uiso   1.00
C713   C     0.52493   0.63489   0.26770   0.00000  Uiso   1.00
C714   C     0.52956   0.63346   0.30275   0.00000  Uiso   1.00
C715   C     0.54348   0.66194   0.32479   0.00000  Uiso   1.00
C716   C     0.55287   0.69146   0.31218   0.00000  Uiso   1.00
C717   C     0.50112   0.57731   0.25868   0.00000  Uiso   1.00
C718   C     0.51942   0.60369   0.31486   0.00000  Uiso   1.00
C719   C     0.48976   0.54885   0.30619   0.00000  Uiso   1.00
C720   C     0.43317   0.58068   0.30694   0.00000  Uiso   1.00
C721   C     0.44103   0.52458   0.32782   0.00000  Uiso   1.00
C722   C     0.54585   0.51758   0.30492   0.00000  Uiso   1.00
C723   C     0.49404   0.49367   0.32673   0.00000  Uiso   1.00
C724   C     0.50917   0.52005   0.31269   0.00000  Uiso   1.00
C725   C     0.45535   0.55085   0.31357   0.00000  Uiso   1.00
C726   C     0.46010   0.49603   0.33462   0.00000  Uiso   1.00
H727   H     0.56141   0.53972   0.31873   0.00000  Uiso   1.00
N728   N     0.55457   0.72287   0.22975   0.00000  Uiso   1.00
N729   N     0.50500   0.57666   0.29288   0.00000  Uiso   1.00
H730   H     0.54647   0.51737   0.27738   0.00000  Uiso   1.00
H731   H     0.54496   0.82501   0.18568   0.00000  Uiso   1.00
H732   H     0.64115   0.77390   0.18414   0.00000  Uiso   1.00
H733   H     0.49809   0.80274   0.20855   0.00000  Uiso   1.00
H734   H     0.49639   0.75707   0.20268   0.00000  Uiso   1.00
H735   H     0.51047   0.78005   0.24396   0.00000  Uiso   1.00
H736   H     0.61369   0.69669   0.20357   0.00000  Uiso   1.00
H737   H     0.65160   0.72383   0.20841   0.00000  Uiso   1.00
H738   H     0.62902   0.72026   0.24426   0.00000  Uiso   1.00
O739   O     0.57322   0.74979   0.28517   0.00000  Uiso   1.00
O740   O     0.53611   0.69761   0.17366   0.00000  Uiso   1.00
H741   H     0.51122   0.63850   0.17086   0.00000  Uiso   1.00
H742   H     0.56363   0.71292   0.32986   0.00000  Uiso   1.00
H743   H     0.49494   0.58707   0.19282   0.00000  Uiso   1.00
H744   H     0.42636   0.59371   0.33127   0.00000  Uiso   1.00
H745   H     0.44600   0.59959   0.29418   0.00000  Uiso   1.00
H746   H     0.41460   0.52649   0.33348   0.00000  Uiso   1.00
H747   H     0.54709   0.66158   0.35185   0.00000  Uiso   1.00
H748   H     0.55790   0.49407   0.31251   0.00000  Uiso   1.00
O749   O     0.52275   0.60219   0.34900   0.00000  Uiso   1.00
O750   O     0.48638   0.54982   0.23741   0.00000  Uiso   1.00
H751   H     0.40907   0.57151   0.29054   0.00000  Uiso   1.00
loop_
_geom_bond_atom_site_label_1
_geom_bond_atom_site_label_2
_geom_bond_distance
_geom_bond_site_symmetry_2
_ccdc_geom_bond_type
Y0     O2      2.245   .     S
Y0     O3      2.295   .     S
Y0     O6      2.239   .     S
Y0     O7      2.271   .     S
Y0     O9      2.260   .     S
Y0     O10     2.284   .     S
Y0     O11     2.224   .     S
Y1     O3      2.270   .     S
Y1     O5      2.248   .     S
Y1     O8      2.280   .     S
Y1     O9      2.251   .     S
Y1     O13     2.277   .     S
Y1     O15     2.258   .     S
Y1     O16     2.254   .     S
O2     C12     1.284   .     A
O3     C14     1.378   .     S
C4     O15     1.262   .     A
C4     O16     1.260   .     A
C4     C417    1.474   .     S
O5     C14     1.208   .     D
O6     C17     1.258   .     A
O7     C17     1.264   .     A
O8     C12     1.289   .     A
O9     C19     1.365   .     S
O10    C19     1.206   .     D
O11    C18     1.277   .     A
C12    C390    1.468   .     S
O13    C18     1.286   .     A
C14    C585    1.470   .     S
C17    C558    1.468   .     S
C18    C670    1.481   .     S
C19    C110    1.469   .     S
Y20    O22     2.232   .     S
Y20    O23     2.285   .     S
Y20    O26     2.244   .     S
Y20    O27     2.275   .     S
Y20    O29     2.276   .     S
Y20    O30     2.251   .     S
Y20    O31     2.243   .     S
Y21    O23     2.270   .     S
Y21    O25     2.260   .     S
Y21    O28     2.297   .     S
Y21    O29     2.253   .     S
Y21    O33     2.259   .     S
Y21    O35     2.247   .     S
Y21    O36     2.274   .     S
O22    C32     1.284   .     A
O23    C34     1.374   .     S
C24    O35     1.257   .     A
C24    O36     1.262   .     A
C24    C166    1.473   .     S
O25    C34     1.209   .     D
O26    C37     1.255   .     A
O27    C37     1.263   .     A
O28    C32     1.292   .     A
O29    C39     1.377   .     S
O30    C39     1.206   .     D
O31    C38     1.277   .     A
C32    C697    1.466   .     S
O33    C38     1.281   .     A
C34    C81     1.474   .     S
C37    C641    1.473   .     S
C38    C278    1.470   .     S
C39    C334    1.475   .     S
Y40    O42     2.240   .     S
Y40    O43     2.292   .     S
Y40    O46     2.242   .     S
Y40    O47     2.278   .     S
Y40    O49     2.258   .     S
Y40    O50     2.264   .     S
Y40    O51     2.253   .     S
Y41    O43     2.259   .     S
Y41    O45     2.265   .     S
Y41    O48     2.289   .     S
Y41    O49     2.251   .     S
Y41    O53     2.252   .     S
Y41    O55     2.269   .     S
Y41    O56     2.251   .     S
O42    C52     1.286   .     A
O43    C54     1.378   .     S
C44    O55     1.263   .     A
C44    O56     1.260   .     A
C44    C502    1.479   .     S
O45    C54     1.213   .     D
O46    C57     1.258   .     A
O47    C57     1.266   .     A
O48    C52     1.290   .     A
O49    C59     1.374   .     S
O50    C59     1.208   .     D
O51    C58     1.280   .     A
C52    C193    1.474   .     S
O53    C58     1.281   .     A
C54    C305    1.473   .     S
C57    C249    1.479   .     S
C58    C529    1.464   .     S
C59    C614    1.470   .     S
Y60    O62     2.234   .     S
Y60    O63     2.288   .     S
Y60    O66     2.231   .     S
Y60    O67     2.274   .     S
Y60    O69     2.258   .     S
Y60    O70     2.262   .     S
Y60    O71     2.240   .     S
Y61    O63     2.257   .     S
Y61    O65     2.262   .     S
Y61    O68     2.306   .     S
Y61    O69     2.245   .     S
Y61    O73     2.269   .     S
Y61    O75     2.257   .     S
Y61    O76     2.267   .     S
O62    C72     1.285   .     A
O63    C74     1.373   .     S
C64    O75     1.260   .     A
C64    O76     1.260   .     A
C64    C473    1.478   .     S
O65    C74     1.210   .     D
O66    C77     1.257   .     A
O67    C77     1.266   .     A
O68    C72     1.294   .     A
O69    C79     1.374   .     S
O70    C79     1.209   .     D
O71    C78     1.277   .     A
C72    C222    1.479   .     S
O73    C78     1.284   .     A
C74    C137    1.461   .     S
C77    C726    1.472   .     S
C78    C446    1.473   .     S
C79    C361    1.473   .     S
H80    C107    1.084   .     S
C81    C82     1.402   .     A
C81    C86     1.402   .     A
C82    C83     1.405   .     A
C82    H115    1.084   .     S
C83    C84     1.412   .     A
C83    C87     1.506   .     S
C84    C85     1.412   .     A
C84    N112    1.442   .     S
C85    C86     1.403   .     A
C85    C88     1.505   1_554 S
C86    H116    1.084   .     S
C87    H117    1.111   .     S
C87    H118    1.111   .     S
C87    H119    1.110   .     S
C88    H120    1.110   .     S
C88    H121    1.111   .     S
C88    H122    1.110   .     S
C88    C85     1.505   1_556 S
C89    C90     1.403   .     A
C89    N112    1.371   .     A
C89    O124    1.373   .     S
C90    C94     1.405   .     A
C90    C91     1.407   1_554 A
C91    C92     1.410   .     A
C91    C97     1.414   .     A
C91    C90     1.407   1_556 A
C92    C93     1.408   .     A
C92    C100    1.405   .     A
C93    O123    1.372   .     S
C93    N112    1.369   1_556 A
C94    C95     1.396   .     A
C94    H125    1.083   .     S
C95    H127    1.083   .     S
C95    C96     1.404   1_554 A
C96    C97     1.410   .     A
C96    C101    1.405   .     A
C96    C95     1.404   1_556 A
C97    C98     1.407   .     A
C98    C99     1.406   .     A
C98    C102    1.405   .     A
C99    C100    1.398   .     A
C99    H131    1.083   .     S
C100   H126    1.083   .     S
C101   N113    1.368   .     A
C101   O134    1.373   .     S
C102   N113    1.371   .     A
C102   O133    1.373   .     S
C103   C108    1.414   .     A
C103   C109    1.412   .     A
C103   N113    1.440   .     S
C104   C109    1.506   .     S
C104   H128    1.110   .     S
C104   H129    1.109   .     S
C104   H135    1.111   .     S
C105   C109    1.399   .     A
C105   C110    1.396   .     A
C105   H130    1.076   .     S
C106   C108    1.504   .     S
C106   H111    1.110   .     S
C106   H114    1.110   .     S
C106   H132    1.111   .     S
C107   C108    1.405   .     A
C107   C110    1.401   .     A
N112   C93     1.369   1_554 A
H136   C163    1.083   .     S
C137   C138    1.399   .     A
C137   C142    1.397   .     A
C138   C139    1.410   .     A
C138   H171    1.084   .     S
C139   C140    1.415   .     A
C139   C143    1.502   .     S
C140   C141    1.410   .     A
C140   N168    1.440   .     S
C141   C142    1.395   .     A
C141   C144    1.505   .     S
C142   H172    1.085   .     S
C143   H173    1.110   .     S
C143   H174    1.110   .     S
C143   H175    1.110   .     S
C144   H176    1.109   .     S
C144   H177    1.111   .     S
C144   H178    1.110   .     S
C145   C146    1.406   .     A
C145   N168    1.369   .     A
C145   O180    1.373   .     S
C146   C147    1.409   .     A
C146   C150    1.405   .     A
C147   C148    1.408   .     A
C147   C153    1.414   .     A
C148   C149    1.405   .     A
C148   C156    1.405   .     A
C149   N168    1.371   .     A
C149   O179    1.373   .     S
C150   C151    1.397   .     A
C150   H181    1.083   .     S
C151   C152    1.405   .     A
C151   H183    1.083   .     S
C152   C153    1.408   .     A
C152   C157    1.405   .     A
C153   C154    1.409   .     A
C154   C155    1.405   .     A
C154   C158    1.404   .     A
C155   C156    1.396   .     A
C155   H187    1.083   .     S
C156   H182    1.083   .     S
C157   N169    1.370   .     A
C157   O190    1.373   .     S
C158   N169    1.370   .     A
C158   O189    1.373   .     S
C159   C165    1.414   .     A
C159   N169    1.441   .     S
C159   C164    1.416   1_545 A
C160   C165    1.509   .     S
C160   H184    1.111   .     S
C160   H185    1.109   .     S
C160   H191    1.112   .     S
C161   C166    1.401   .     A
C161   H186    1.085   .     S
C161   C165    1.398   1_565 A
C162   H167    1.111   .     S
C162   H170    1.108   .     S
C162   C164    1.505   1_545 S
C162   H188    1.110   1_545 S
C163   C164    1.405   .     A
C163   C166    1.399   .     A
C164   C159    1.416   1_565 A
C164   C162    1.505   1_565 S
C165   C161    1.398   1_545 A
H188   C162    1.110   1_565 S
H192   C219    1.083   .     S
C193   C194    1.403   .     A
C193   C198    1.402   .     A
C194   C195    1.405   .     A
C194   H227    1.084   .     S
C195   C196    1.412   .     A
C195   C199    1.503   .     S
C196   C197    1.409   .     A
C196   N224    1.439   .     S
C197   C198    1.397   .     A
C197   C200    1.505   .     S
C198   H228    1.084   .     S
C199   H229    1.111   .     S
C199   H230    1.110   .     S
C199   H231    1.110   .     S
C200   H232    1.110   .     S
C200   H233    1.110   .     S
C200   H234    1.109   .     S
C201   C202    1.404   .     A
C201   N224    1.369   .     A
C201   O236    1.373   .     S
C202   C203    1.409   .     A
C202   C206    1.404   .     A
C203   C204    1.409   .     A
C203   C209    1.413   .     A
C204   C205    1.405   .     A
C204   C212    1.406   .     A
C205   N224    1.370   .     A
C205   O235    1.373   .     S
C206   C207    1.396   .     A
C206   H237    1.083   .     S
C207   C208    1.405   .     A
C207   H239    1.083   .     S
C208   C209    1.408   .     A
C208   C213    1.403   .     A
C209   C210    1.409   .     A
C210   C211    1.405   .     A
C210   C214    1.406   .     A
C211   C212    1.398   .     A
C211   H243    1.083   .     S
C212   H238    1.083   .     S
C213   N225    1.370   .     A
C213   O246    1.373   .     S
C214   N225    1.369   .     A
C214   O245    1.372   .     S
C215   C220    1.413   .     A
C215   C221    1.412   .     A
C215   N225    1.439   .     S
C216   C221    1.508   .     S
C216   H240    1.110   .     S
C216   H241    1.109   .     S
C216   H247    1.110   .     S
C217   C221    1.398   .     A
C217   C222    1.404   .     A
C217   H242    1.084   .     S
C218   C220    1.506   .     S
C218   H223    1.110   .     S
C218   H226    1.111   .     S
C218   H244    1.111   .     S
C219   C220    1.406   .     A
C219   C222    1.403   .     A
H248   C275    1.083   .     S
C249   C250    1.402   .     A
C249   C254    1.404   .     A
C250   C251    1.408   .     A
C250   H283    1.083   .     S
C251   C252    1.413   .     A
C251   C255    1.504   1_545 S
C252   C253    1.410   .     A
C252   N280    1.442   .     S
C253   C254    1.400   .     A
C253   C256    1.507   .     S
C254   H284    1.084   .     S
C255   H285    1.111   .     S
C255   H286    1.110   .     S
C255   H287    1.110   .     S
C255   C251    1.504   1_565 S
C256   H288    1.110   .     S
C256   H289    1.111   .     S
C256   H290    1.111   .     S
C257   C258    1.404   .     A
C257   O292    1.373   .     S
C257   N280    1.370   1_565 A
C258   C259    1.408   .     A
C258   C262    1.405   .     A
C259   C265    1.414   .     A
C259   C260    1.409   1_565 A
C260   C261    1.407   .     A
C260   C268    1.406   .     A
C260   C259    1.409   1_545 A
C261   N280    1.370   .     A
C261   O291    1.373   .     S
C262   C263    1.396   .     A
C262   H293    1.083   .     S
C263   C264    1.405   .     A
C263   H295    1.083   .     S
C264   C265    1.408   .     A
C264   C269    1.404   .     A
C265   C266    1.409   .     A
C266   C270    1.407   .     A
C266   C267    1.405   1_565 A
C267   C268    1.398   .     A
C267   H299    1.083   .     S
C267   C266    1.405   1_545 A
C268   H294    1.083   .     S
C269   N281    1.370   .     A
C269   O302    1.373   .     S
C270   N281    1.370   .     A
C270   O301    1.373   .     S
C271   C277    1.413   .     A
C271   N281    1.440   .     S
C271   C276    1.416   1_556 A
C272   C277    1.507   .     S
C272   H296    1.111   .     S
C272   H297    1.108   .     S
C272   H303    1.110   .     S
C273   C278    1.401   .     A
C273   H298    1.085   .     S
C273   C277    1.396   1_554 A
C274   C276    1.504   .     S
C274   H282    1.110   .     S
C274   H279    1.109   1_565 S
C274   H300    1.111   1_565 S
C275   C276    1.406   .     A
C275   C278    1.399   .     A
C276   C271    1.416   1_554 A
C277   C273    1.396   1_556 A
H279   C274    1.109   1_545 S
N280   C257    1.370   1_545 A
H300   C274    1.111   1_545 S
H304   C331    1.084   .     S
C305   C306    1.402   .     A
C305   C310    1.401   .     A
C306   C307    1.403   .     A
C306   H339    1.084   .     S
C307   C308    1.414   .     A
C307   C311    1.507   .     S
C308   C309    1.416   .     A
C308   N336    1.445   .     S
C309   C310    1.406   .     A
C309   C312    1.505   1_545 S
C310   H340    1.084   1_545 S
C311   H341    1.111   .     S
C311   H342    1.111   .     S
C311   H343    1.109   .     S
C312   H344    1.109   .     S
C312   H345    1.111   .     S
C312   H346    1.110   .     S
C312   C309    1.505   1_565 S
C313   N336    1.372   .     A
C313   O348    1.373   .     S
C313   C314    1.404   1_545 A
C314   C315    1.407   .     A
C314   C318    1.405   .     A
C314   C313    1.404   1_565 A
C315   C316    1.409   .     A
C315   C321    1.415   .     A
C316   C324    1.406   .     A
C316   C317    1.409   1_565 A
C317   N336    1.371   .     A
C317   O347    1.372   .     S
C317   C316    1.409   1_545 A
C318   C319    1.396   .     A
C318   H349    1.083   .     S
C319   C320    1.404   .     A
C319   H351    1.083   .     S
C320   C321    1.409   .     A
C320   C325    1.404   .     A
C321   C322    1.408   .     A
C322   C323    1.406   .     A
C322   C326    1.407   .     A
C323   C324    1.399   .     A
C323   H355    1.083   .     S
C324   H350    1.083   .     S
C325   N337    1.369   .     A
C325   O358    1.373   .     S
C326   N337    1.371   .     A
C326   O357    1.373   .     S
C327   C332    1.412   .     A
C327   C333    1.417   .     A
C327   N337    1.441   .     S
C328   H352    1.111   .     S
C328   H353    1.109   .     S
C328   H359    1.111   .     S
C328   C333    1.505   1_545 S
C329   C333    1.407   .     A
C329   C334    1.400   .     A
C329   H354    1.083   .     S
C330   C332    1.507   .     S
C330   H335    1.110   .     S
C330   H338    1.110   .     S
C330   H356    1.111   .     S
C331   C332    1.397   .     A
C331   C334    1.402   .     A
C333   C328    1.505   1_565 S
H340   C310    1.084   1_565 S
H360   C387    1.084   .     S
C361   C362    1.402   .     A
C361   C366    1.401   .     A
C362   C363    1.401   .     A
C362   H395    1.084   .     S
C363   C364    1.411   .     A
C363   C367    1.505   .     S
C364   C365    1.412   .     A
C364   N392    1.441   .     S
C365   C366    1.405   .     A
C365   C368    1.504   .     S
C366   H396    1.083   .     S
C367   H397    1.110   .     S
C367   H398    1.110   .     S
C367   H399    1.110   .     S
C368   H400    1.110   .     S
C368   H401    1.111   .     S
C368   H402    1.110   .     S
C369   C370    1.404   .     A
C369   N392    1.369   .     A
C369   O404    1.373   .     S
C370   C371    1.409   .     A
C370   C374    1.404   .     A
C371   C372    1.409   .     A
C371   C377    1.414   .     A
C372   C373    1.407   .     A
C372   C380    1.406   .     A
C373   N392    1.370   .     A
C373   O403    1.373   .     S
C374   C375    1.396   .     A
C374   H405    1.083   .     S
C375   C376    1.405   .     A
C375   H407    1.083   .     S
C376   C377    1.408   .     A
C376   C381    1.403   .     A
C377   C378    1.409   .     A
C378   C379    1.405   .     A
C378   C382    1.407   .     A
C379   C380    1.398   .     A
C379   H411    1.083   .     S
C380   H406    1.083   .     S
C381   N393    1.370   .     A
C381   O414    1.373   .     S
C382   N393    1.369   .     A
C382   O413    1.373   .     S
C383   C388    1.411   .     A
C383   C389    1.416   .     A
C383   N393    1.440   .     S
C384   C389    1.505   .     S
C384   H408    1.110   .     S
C384   H409    1.109   .     S
C384   H415    1.110   .     S
C385   C389    1.405   .     A
C385   C390    1.400   .     A
C385   H410    1.084   .     S
C386   C388    1.507   .     S
C386   H391    1.111   .     S
C386   H394    1.110   .     S
C386   H412    1.111   .     S
C387   C388    1.399   .     A
C387   C390    1.400   .     A
H416   C443    1.085   .     S
C417   C418    1.402   .     A
C417   C422    1.402   .     A
C418   C419    1.403   .     A
C418   H451    1.084   .     S
C419   C423    1.504   .     S
C419   C420    1.412   1_556 A
C420   C421    1.412   .     A
C420   N448    1.441   .     S
C420   C419    1.412   1_554 A
C421   C424    1.505   .     S
C421   C422    1.403   1_554 A
C422   H452    1.084   .     S
C422   C421    1.403   1_556 A
C423   H453    1.111   .     S
C423   H454    1.110   1_556 S
C423   H455    1.110   1_556 S
C424   H456    1.110   .     S
C424   H457    1.111   .     S
C424   H458    1.109   .     S
C425   C426    1.405   .     A
C425   N448    1.369   .     A
C425   O460    1.373   .     S
C426   C427    1.410   .     A
C426   C430    1.404   .     A
C427   C428    1.408   .     A
C427   C433    1.414   .     A
C428   C429    1.406   .     A
C428   C436    1.406   .     A
C429   N448    1.371   .     A
C429   O459    1.373   .     S
C430   C431    1.396   .     A
C430   H461    1.083   .     S
C431   C432    1.405   .     A
C431   H463    1.083   .     S
C432   C433    1.408   .     A
C432   C437    1.404   .     A
C433   C434    1.410   .     A
C434   C435    1.405   .     A
C434   C438    1.408   .     A
C435   C436    1.398   .     A
C435   H467    1.083   .     S
C436   H462    1.083   .     S
C437   N449    1.371   .     A
C437   O470    1.373   .     S
C438   N449    1.370   .     A
C438   O469    1.372   .     S
C439   C444    1.411   .     A
C439   C445    1.418   .     A
C439   N449    1.441   .     S
C440   C445    1.505   .     S
C440   H464    1.110   .     S
C440   H465    1.108   .     S
C440   H471    1.110   .     S
C441   C445    1.409   .     A
C441   C446    1.400   .     A
C441   H466    1.084   .     S
C442   C444    1.507   .     S
C442   H447    1.110   .     S
C442   H450    1.109   .     S
C442   H468    1.110   .     S
C443   C444    1.398   .     A
C443   C446    1.402   .     A
H454   C423    1.110   1_554 S
H455   C423    1.110   1_554 S
H472   C499    1.084   .     S
C473   C474    1.402   .     A
C473   C478    1.403   .     A
C474   C475    1.402   .     A
C474   H507    1.083   .     S
C475   C476    1.412   .     A
C475   C479    1.507   .     S
C476   C477    1.414   .     A
C476   N504    1.442   .     S
C477   C478    1.406   .     A
C477   C480    1.506   .     S
C478   H508    1.084   .     S
C479   H509    1.111   .     S
C479   H510    1.110   .     S
C479   H511    1.110   .     S
C480   H512    1.111   .     S
C480   H513    1.111   .     S
C480   H514    1.110   .     S
C481   C482    1.406   .     A
C481   N504    1.370   .     A
C481   O516    1.373   .     S
C482   C483    1.409   .     A
C482   C486    1.405   .     A
C483   C484    1.409   .     A
C483   C489    1.415   .     A
C484   C485    1.407   .     A
C484   C492    1.406   .     A
C485   N504    1.371   .     A
C485   O515    1.373   .     S
C486   C487    1.397   .     A
C486   H517    1.083   .     S
C487   C488    1.405   .     A
C487   H519    1.083   .     S
C488   C489    1.408   .     A
C488   C493    1.406   .     A
C489   C490    1.409   .     A
C490   C491    1.406   .     A
C490   C494    1.407   .     A
C491   C492    1.398   .     A
C491   H523    1.083   .     S
C492   H518    1.083   .     S
C493   N505    1.370   .     A
C493   O526    1.373   .     S
C494   N505    1.370   .     A
C494   O525    1.373   .     S
C495   C500    1.412   .     A
C495   N505    1.442   .     S
C495   C501    1.416   1_455 A
C496   C501    1.507   .     S
C496   H520    1.110   .     S
C496   H527    1.111   .     S
C496   H521    1.108   1_655 S
C497   C501    1.406   .     A
C497   C502    1.403   .     A
C497   H522    1.084   .     S
C498   C500    1.506   .     S
C498   H503    1.110   .     S
C498   H506    1.110   .     S
C498   H524    1.111   .     S
C499   C502    1.402   .     A
C499   C500    1.402   1_655 A
C500   C499    1.402   1_455 A
C501   C495    1.416   1_655 A
H521   C496    1.108   1_455 S
H528   C555    1.084   .     S
C529   C530    1.399   .     A
C529   C534    1.398   .     A
C530   C531    1.404   .     A
C530   H563    1.084   .     S
C531   C535    1.506   .     S
C531   C532    1.414   1_545 A
C532   C533    1.413   .     A
C532   N560    1.442   .     S
C532   C531    1.414   1_565 A
C533   C536    1.505   .     S
C533   C534    1.402   1_565 A
C534   H564    1.084   .     S
C534   C533    1.402   1_545 A
C535   H565    1.111   .     S
C535   H566    1.110   .     S
C535   H567    1.111   .     S
C536   H568    1.111   .     S
C536   H569    1.111   .     S
C536   H570    1.110   .     S
C537   C538    1.404   .     A
C537   N560    1.370   .     A
C537   O572    1.373   .     S
C538   C539    1.408   .     A
C538   C542    1.405   .     A
C539   C540    1.409   1_655 A
C539   C545    1.415   1_655 A
C540   C548    1.405   .     A
C540   C539    1.409   1_455 A
C540   C541    1.407   1_455 A
C541   N560    1.370   .     A
C541   C540    1.407   1_655 A
C541   O571    1.373   1_655 S
C542   C543    1.396   .     A
C542   H573    1.083   .     S
C543   C544    1.405   .     A
C543   H575    1.083   .     S
C544   C549    1.406   .     A
C544   C545    1.409   1_655 A
C545   C546    1.408   .     A
C545   C539    1.415   1_455 A
C545   C544    1.409   1_455 A
C546   C547    1.407   .     A
C546   C550    1.408   .     A
C547   C548    1.399   .     A
C547   H579    1.083   .     S
C548   H574    1.083   .     S
C549   O582    1.373   .     S
C549   N561    1.370   1_655 A
C550   N561    1.373   .     A
C550   O581    1.373   .     S
C551   C556    1.418   .     A
C551   C557    1.413   .     A
C551   N561    1.444   .     S
C552   C557    1.507   .     S
C552   H576    1.110   .     S
C552   H577    1.107   .     S
C552   H583    1.110   .     S
C553   C557    1.396   .     A
C553   C558    1.399   .     A
C553   H578    1.085   .     S
C554   C556    1.503   .     S
C554   H559    1.110   .     S
C554   H562    1.109   .     S
C554   H580    1.111   .     S
C555   C556    1.411   .     A
C555   C558    1.399   .     A
N561   C549    1.370   1_455 A
O571   C541    1.373   1_455 S
H584   C611    1.084   .     S
C585   C586    1.399   .     A
C585   C590    1.400   .     A
C586   C587    1.410   .     A
C586   H619    1.084   .     S
C587   C588    1.418   .     A
C587   C591    1.504   1_455 S
C588   C589    1.414   .     A
C588   N616    1.445   .     S
C589   C590    1.396   .     A
C589   C592    1.508   .     S
C590   H620    1.084   .     S
C591   H621    1.111   .     S
C591   H622    1.109   .     S
C591   H623    1.110   .     S
C591   C587    1.504   1_655 S
C592   H624    1.110   .     S
C592   H625    1.111   .     S
C592   H626    1.108   .     S
C593   C594    1.406   .     A
C593   N616    1.372   .     A
C593   O628    1.372   .     S
C594   C598    1.406   .     A
C594   C595    1.407   1_455 A
C595   C596    1.408   .     A
C595   C601    1.414   .     A
C595   C594    1.407   1_655 A
C596   C597    1.406   .     A
C596   C604    1.405   .     A
C597   O627    1.373   .     S
C597   N616    1.371   1_655 A
C598   C599    1.398   .     A
C598   H629    1.083   .     S
C599   H631    1.083   .     S
C599   C600    1.405   1_455 A
C600   C601    1.409   .     A
C600   C605    1.407   .     A
C600   C599    1.405   1_655 A
C601   C602    1.407   .     A
C602   C603    1.406   .     A
C602   C606    1.404   .     A
C603   C604    1.397   .     A
C603   H635    1.083   .     S
C604   H630    1.083   .     S
C605   N617    1.371   .     A
C605   O638    1.373   .     S
C606   N617    1.372   .     A
C606   O637    1.374   .     S
C607   C612    1.419   .     A
C607   C613    1.416   .     A
C607   N617    1.444   .     S
C608   C613    1.508   .     S
C608   H632    1.110   .     S
C608   H633    1.109   .     S
C608   H639    1.111   .     S
C609   C613    1.400   .     A
C609   C614    1.400   .     A
C609   H634    1.085   .     S
C610   C612    1.507   .     S
C610   H615    1.110   .     S
C610   H618    1.108   .     S
C610   H636    1.111   .     S
C611   C612    1.407   .     A
C611   C614    1.398   .     A
N616   C597    1.371   1_455 A
H640   C667    1.084   .     S
C641   C642    1.401   .     A
C641   C646    1.402   .     A
C642   H675    1.084   .     S
C642   C643    1.407   1_554 A
C643   C647    1.505   .     S
C643   C642    1.407   1_556 A
C643   C644    1.414   1_556 A
C644   C645    1.410   .     A
C644   N672    1.441   .     S
C644   C643    1.414   1_554 A
C645   C646    1.400   .     A
C645   C648    1.506   .     S
C646   H676    1.085   .     S
C647   H677    1.110   .     S
C647   H678    1.110   .     S
C647   H679    1.110   .     S
C648   H680    1.110   .     S
C648   H681    1.111   .     S
C648   H682    1.110   .     S
C649   N672    1.371   .     A
C649   O684    1.373   .     S
C649   C650    1.404   1_554 A
C650   C651    1.408   .     A
C650   C654    1.405   .     A
C650   C649    1.404   1_556 A
C651   C652    1.410   .     A
C651   C657    1.414   .     A
C652   C653    1.407   .     A
C652   C660    1.405   .     A
C653   O683    1.373   .     S
C653   N672    1.369   1_556 A
C654   C655    1.397   .     A
C654   H685    1.083   1_556 S
C655   C656    1.405   .     A
C655   H687    1.083   .     S
C656   C657    1.410   .     A
C656   C661    1.406   .     A
C657   C658    1.408   .     A
C658   C659    1.406   .     A
C658   C662    1.406   .     A
C659   C660    1.398   .     A
C659   H691    1.083   .     S
C660   H686    1.083   .     S
C661   N673    1.369   .     A
C661   O694    1.373   .     S
C662   N673    1.371   .     A
C662   O693    1.373   .     S
C663   C668    1.414   .     A
C663   C669    1.412   .     A
C663   N673    1.441   1_455 S
C664   H688    1.110   .     S
C664   H689    1.107   .     S
C664   C669    1.507   1_655 S
C664   H695    1.111   1_655 S
C665   C669    1.397   .     A
C665   C670    1.404   .     A
C665   H690    1.085   .     S
C666   C668    1.503   .     S
C666   H674    1.110   .     S
C666   H692    1.110   .     S
C666   H671    1.110   1_455 S
C667   C668    1.409   .     A
C667   C670    1.403   .     A
C669   C664    1.507   1_455 S
H671   C666    1.110   1_655 S
N672   C653    1.369   1_554 A
N673   C663    1.441   1_655 S
H685   C654    1.083   1_554 S
H695   C664    1.111   1_455 S
H696   C723    1.083   .     S
C697   C698    1.399   .     A
C697   C702    1.401   .     A
C698   C699    1.404   .     A
C698   H731    1.084   .     S
C699   C700    1.413   .     A
C699   C703    1.503   .     S
C700   C701    1.410   .     A
C700   N728    1.438   .     S
C701   C702    1.397   .     A
C701   C704    1.506   .     S
C702   H732    1.084   .     S
C703   H733    1.111   .     S
C703   H734    1.110   .     S
C703   H735    1.110   .     S
C704   H736    1.110   .     S
C704   H737    1.111   .     S
C704   H738    1.110   .     S
C705   C706    1.404   .     A
C705   N728    1.369   .     A
C705   O740    1.374   .     S
C706   C707    1.408   .     A
C706   C710    1.405   .     A
C707   C708    1.409   .     A
C707   C713    1.413   .     A
C708   C709    1.405   .     A
C708   C716    1.405   .     A
C709   N728    1.369   .     A
C709   O739    1.373   .     S
C710   C711    1.397   .     A
C710   H741    1.083   .     S
C711   C712    1.405   .     A
C711   H743    1.083   .     S
C712   C713    1.409   .     A
C712   C717    1.405   .     A
C713   C714    1.408   .     A
C714   C715    1.405   .     A
C714   C718    1.405   .     A
C715   C716    1.397   .     A
C715   H747    1.083   .     S
C716   H742    1.083   .     S
C717   N729    1.370   .     A
C717   O750    1.372   .     S
C718   N729    1.369   .     A
C718   O749    1.373   .     S
C719   C724    1.414   .     A
C719   C725    1.411   .     A
C719   N729    1.439   .     S
C720   C725    1.508   .     S
C720   H744    1.111   .     S
C720   H745    1.109   .     S
C720   H751    1.111   .     S
C721   C725    1.395   .     A
C721   C726    1.401   .     A
C721   H746    1.085   .     S
C722   C724    1.504   .     S
C722   H727    1.110   .     S
C722   H730    1.110   .     S
C722   H748    1.111   .     S
C723   C724    1.407   .     A
C723   C726    1.400   .     A
