data_lcy+N123+E28
_audit_creation_date              2025-01-21
_audit_creation_method            'Materials Studio'
_symmetry_space_group_name_H-M    'P1'
_symmetry_Int_Tables_number       1
_symmetry_cell_setting            triclinic
loop_
_symmetry_equiv_pos_as_xyz
  x,y,z
_cell_length_a                    35.1515
_cell_length_b                    30.9611
_cell_length_c                    32.4431
_cell_angle_alpha                 92.7484
_cell_angle_beta                  101.6656
_cell_angle_gamma                 90.4971
loop_
_atom_site_label
_atom_site_type_symbol
_atom_site_fract_x
_atom_site_fract_y
_atom_site_fract_z
_atom_site_U_iso_or_equiv
_atom_site_adp_type
_atom_site_occupancy
Ce0    Ce    0.16155   0.61945   0.85126   0.00000  Uiso   1.00
Ce1    Ce    0.10686   0.64387   0.91180   0.00000  Uiso   1.00
C2     C     0.18511   0.66805   0.93993   0.00000  Uiso   1.00
C3     C     0.19948   0.59269   0.78971   0.00000  Uiso   1.00
C4     C     0.09804   0.69535   0.82483   0.00000  Uiso   1.00
C5     C     0.10403   0.56001   0.82876   0.00000  Uiso   1.00
C6     C     0.05330   0.65663   0.95988   0.00000  Uiso   1.00
C7     C     0.16864   0.56588   0.93747   0.00000  Uiso   1.00
O8     O     0.16492   0.65338   0.96197   0.00000  Uiso   1.00
O9     O     0.16427   0.67342   0.90043   0.00000  Uiso   1.00
O10    O     0.21262   0.62358   0.81666   0.00000  Uiso   1.00
O11    O     0.16865   0.57426   0.79598   0.00000  Uiso   1.00
O12    O     0.12398   0.67087   0.81234   0.00000  Uiso   1.00
O13    O     0.08616   0.69135   0.85995   0.00000  Uiso   1.00
O14    O     0.13065   0.56214   0.80968   0.00000  Uiso   1.00
O15    O     0.10590   0.59238   0.86028   0.00000  Uiso   1.00
O16    O     0.05149   0.62564   0.93230   0.00000  Uiso   1.00
O17    O     0.08336   0.68135   0.96392   0.00000  Uiso   1.00
O18    O     0.13978   0.58797   0.94634   0.00000  Uiso   1.00
O19    O     0.18451   0.57223   0.90505   0.00000  Uiso   1.00
Ce20   Ce    0.59252   0.90632   0.11096   0.00000  Uiso   1.00
Ce21   Ce    0.65471   0.84175   0.09886   0.00000  Uiso   1.00
C22    C     0.57875   0.81433   0.06512   0.00000  Uiso   1.00
C23    C     0.54353   0.96750   0.12982   0.00000  Uiso   1.00
C24    C     0.65438   0.93285   0.05301   0.00000  Uiso   1.00
C25    C     0.64912   0.93004   0.17664   0.00000  Uiso   1.00
C26    C     0.71330   0.78855   0.09144   0.00000  Uiso   1.00
C27    C     0.59656   0.81782   0.16235   0.00000  Uiso   1.00
O28    O     0.60362   0.79154   0.08361   0.00000  Uiso   1.00
O29    O     0.59333   0.85467   0.06042   0.00000  Uiso   1.00
O30    O     0.53449   0.94186   0.09708   0.00000  Uiso   1.00
O31    O     0.57721   0.96209   0.15231   0.00000  Uiso   1.00
O32    O     0.62498   0.94598   0.06891   0.00000  Uiso   1.00
O33    O     0.67017   0.89533   0.05891   0.00000  Uiso   1.00
O34    O     0.61810   0.94875   0.16923   0.00000  Uiso   1.00
O35    O     0.65201   0.89618   0.14747   0.00000  Uiso   1.00
O36    O     0.71407   0.81442   0.12342   0.00000  Uiso   1.00
O37    O     0.68153   0.78805   0.06397   0.00000  Uiso   1.00
O38    O     0.62622   0.80609   0.14631   0.00000  Uiso   1.00
O39    O     0.57758   0.85329   0.15387   0.00000  Uiso   1.00
Ce40   Ce    0.89402   0.13778   0.58890   0.00000  Uiso   1.00
Ce41   Ce    0.85129   0.11590   0.66347   0.00000  Uiso   1.00
C42    C     0.82729   0.07144   0.58651   0.00000  Uiso   1.00
C43    C     0.94003   0.16282   0.53659   0.00000  Uiso   1.00
C44    C     0.94011   0.08240   0.66880   0.00000  Uiso   1.00
C45    C     0.91508   0.18482   0.66496   0.00000  Uiso   1.00
C46    C     0.81177   0.09489   0.72271   0.00000  Uiso   1.00
C47    C     0.80344   0.16867   0.58306   0.00000  Uiso   1.00
O48    O     0.80535   0.08646   0.60739   0.00000  Uiso   1.00
O49    O     0.86516   0.07811   0.60661   0.00000  Uiso   1.00
O50    O     0.92577   0.12450   0.53445   0.00000  Uiso   1.00
O51    O     0.92840   0.18860   0.56300   0.00000  Uiso   1.00
O52    O     0.94195   0.10035   0.63361   0.00000  Uiso   1.00
O53    O     0.91096   0.08594   0.68776   0.00000  Uiso   1.00
O54    O     0.93808   0.16735   0.64709   0.00000  Uiso   1.00
O55    O     0.87788   0.17595   0.64409   0.00000  Uiso   1.00
O56    O     0.82483   0.13317   0.72051   0.00000  Uiso   1.00
O57    O     0.81914   0.06745   0.69486   0.00000  Uiso   1.00
O58    O     0.80247   0.15056   0.61840   0.00000  Uiso   1.00
O59    O     0.83379   0.16963   0.56554   0.00000  Uiso   1.00
Ce60   Ce    0.40891   0.40836   0.38592   0.00000  Uiso   1.00
Ce61   Ce    0.34761   0.33705   0.40026   0.00000  Uiso   1.00
C62    C     0.42220   0.31342   0.42390   0.00000  Uiso   1.00
C63    C     0.44342   0.48010   0.36369   0.00000  Uiso   1.00
C64    C     0.33954   0.43741   0.43196   0.00000  Uiso   1.00
C65    C     0.34192   0.41272   0.32475   0.00000  Uiso   1.00
C66    C     0.28871   0.29254   0.41822   0.00000  Uiso   1.00
C67    C     0.40836   0.33178   0.32811   0.00000  Uiso   1.00
O68    O     0.39599   0.28799   0.40683   0.00000  Uiso   1.00
O69    O     0.40936   0.35497   0.43318   0.00000  Uiso   1.00
O70    O     0.45813   0.46025   0.39657   0.00000  Uiso   1.00
O71    O     0.41184   0.46333   0.34300   0.00000  Uiso   1.00
O72    O     0.37430   0.44650   0.42791   0.00000  Uiso   1.00
O73    O     0.32113   0.40272   0.41517   0.00000  Uiso   1.00
O74    O     0.36524   0.44238   0.33541   0.00000  Uiso   1.00
O75    O     0.35524   0.37473   0.34369   0.00000  Uiso   1.00
O76    O     0.29023   0.30134   0.38017   0.00000  Uiso   1.00
O77    O     0.31825   0.30519   0.44693   0.00000  Uiso   1.00
O78    O     0.37288   0.33453   0.33556   0.00000  Uiso   1.00
O79    O     0.43386   0.36101   0.34388   0.00000  Uiso   1.00
C80    C     0.46015   0.77099   0.02565   0.00000  Uiso   1.00
C81    C     0.49066   0.74249   1.02365   0.00000  Uiso   1.00
C82    C     0.52929   0.75666   0.03654   0.00000  Uiso   1.00
C83    C     0.53806   0.79995   0.05015   0.00000  Uiso   1.00
C84    C     0.50766   0.82876   0.05129   0.00000  Uiso   1.00
C85    C     0.46894   0.81422   0.03983   0.00000  Uiso   1.00
C86    C     0.41942   0.75536   0.01332   0.00000  Uiso   1.00
N87    N     0.39207   0.77016   0.03440   0.00000  Uiso   1.00
N88    N     0.35556   0.75510   0.02392   0.00000  Uiso   1.00
C89    C     0.34493   0.72502   0.99165   0.00000  Uiso   1.00
N90    N     0.37222   0.71054   0.97034   0.00000  Uiso   1.00
N91    N     0.40881   0.72515   0.98119   0.00000  Uiso   1.00
C92    C     0.30430   0.70917   0.97910   0.00000  Uiso   1.00
C93    C     0.28814   0.69956   0.93641   0.00000  Uiso   1.00
C94    C     0.24935   0.68606   0.92393   0.00000  Uiso   1.00
C95    C     0.22629   0.68081   0.95398   0.00000  Uiso   1.00
C96    C     0.24254   0.68950   0.99682   0.00000  Uiso   1.00
C97    C     0.28116   0.70418   1.00926   0.00000  Uiso   1.00
H98    H     0.48461   0.70897   1.01300   0.00000  Uiso   1.00
H99    H     0.55237   0.73390   1.03559   0.00000  Uiso   1.00
H100   H     0.51386   0.86215   0.06217   0.00000  Uiso   1.00
H101   H     0.44587   0.83679   0.04159   0.00000  Uiso   1.00
H102   H     0.30524   0.70365   0.91255   0.00000  Uiso   1.00
H103   H     0.23734   0.67985   0.89068   0.00000  Uiso   1.00
H104   H     0.22508   0.68606   1.02047   0.00000  Uiso   1.00
H105   H     0.29300   0.71138   0.04239   0.00000  Uiso   1.00
C106   C     0.43560   0.22533   0.25030   0.00000  Uiso   1.00
C107   C     0.40155   0.22485   0.26651   0.00000  Uiso   1.00
C108   C     0.39214   0.26037   0.29022   0.00000  Uiso   1.00
C109   C     0.41703   0.29683   0.29907   0.00000  Uiso   1.00
C110   C     0.45098   0.29766   0.28247   0.00000  Uiso   1.00
C111   C     0.45999   0.26228   0.25785   0.00000  Uiso   1.00
C112   C     0.44644   0.18617   0.22805   0.00000  Uiso   1.00
N113   N     0.46743   0.18872   0.19736   0.00000  Uiso   1.00
N114   N     0.47788   0.15290   0.17836   0.00000  Uiso   1.00
C115   C     0.46799   0.11328   0.18965   0.00000  Uiso   1.00
N116   N     0.44700   0.11081   0.22026   0.00000  Uiso   1.00
N117   N     0.43617   0.14655   0.23884   0.00000  Uiso   1.00
C118   C     0.48285   0.07369   0.17212   0.00000  Uiso   1.00
C119   C     0.49589   0.04031   0.19889   0.00000  Uiso   1.00
C120   C     0.51408   1.00465   0.18420   0.00000  Uiso   1.00
C121   C     0.51827   1.00104   0.14212   0.00000  Uiso   1.00
C122   C     0.50348   0.03320   0.11458   0.00000  Uiso   1.00
C123   C     0.48634   0.06976   0.12972   0.00000  Uiso   1.00
H124   H     0.38239   0.19666   0.26129   0.00000  Uiso   1.00
H125   H     0.36595   0.25859   0.30287   0.00000  Uiso   1.00
H126   H     0.47079   0.32526   0.28908   0.00000  Uiso   1.00
H127   H     0.48675   0.26306   0.24619   0.00000  Uiso   1.00
H128   H     0.49395   0.04291   0.23181   0.00000  Uiso   1.00
H129   H     0.52600   0.98045   0.20605   0.00000  Uiso   1.00
H130   H     0.50729   0.03127   0.08224   0.00000  Uiso   1.00
H131   H     0.47650   0.09528   0.10865   0.00000  Uiso   1.00
C132   C     0.69378   0.21633   0.51920   0.00000  Uiso   1.00
C133   C     0.69592   0.17924   0.54267   0.00000  Uiso   1.00
C134   C     0.73162   0.16452   0.56348   0.00000  Uiso   1.00
C135   C     0.76631   0.18582   0.56057   0.00000  Uiso   1.00
C136   C     0.76455   0.22255   0.53648   0.00000  Uiso   1.00
C137   C     0.72840   0.23817   0.51647   0.00000  Uiso   1.00
C138   C     0.65512   0.23179   0.49886   0.00000  Uiso   1.00
N139   N     0.64835   0.27456   0.49387   0.00000  Uiso   1.00
N140   N     0.61244   0.28823   0.47928   0.00000  Uiso   1.00
C141   C     0.58198   0.25965   0.46891   0.00000  Uiso   1.00
N142   N     0.58906   0.21689   0.47311   0.00000  Uiso   1.00
N143   N     0.62478   0.20330   0.48791   0.00000  Uiso   1.00
C144   C     0.54150   0.27441   0.45531   0.00000  Uiso   1.00
C145   C     0.51165   0.24424   0.43835   0.00000  Uiso   1.00
C146   C     0.47308   0.25712   0.42782   0.00000  Uiso   1.00
C147   C     0.46329   0.30042   0.43437   0.00000  Uiso   1.00
C148   C     0.49302   0.33086   0.45074   0.00000  Uiso   1.00
C149   C     0.53182   0.31801   0.46098   0.00000  Uiso   1.00
H150   H     0.66982   0.16194   0.54576   0.00000  Uiso   1.00
H151   H     0.73205   0.13597   0.58160   0.00000  Uiso   1.00
H152   H     0.79094   0.23954   0.53386   0.00000  Uiso   1.00
H153   H     0.72751   0.26695   0.49863   0.00000  Uiso   1.00
H154   H     0.51800   0.21043   0.43350   0.00000  Uiso   1.00
H155   H     0.45081   0.23295   0.41505   0.00000  Uiso   1.00
H156   H     0.48627   0.36452   0.45584   0.00000  Uiso   1.00
H157   H     0.55408   0.34201   0.47421   0.00000  Uiso   1.00
C158   C     0.75352   0.05857   0.82016   0.00000  Uiso   1.00
C159   C     0.76080   0.10244   0.81498   0.00000  Uiso   1.00
C160   C     0.77936   0.11451   0.78285   0.00000  Uiso   1.00
C161   C     0.79032   0.08291   0.75516   0.00000  Uiso   1.00
C162   C     0.78143   0.03930   0.75924   0.00000  Uiso   1.00
C163   C     0.76343   0.02724   0.79155   0.00000  Uiso   1.00
C164   C     0.73822   0.04466   0.85662   0.00000  Uiso   1.00
N165   N     0.74639   1.00465   0.87080   0.00000  Uiso   1.00
N166   N     0.73416   0.99180   0.90443   0.00000  Uiso   1.00
C167   C     0.71306   1.01827   0.92527   0.00000  Uiso   1.00
N168   N     0.70438   0.05827   0.91094   0.00000  Uiso   1.00
N169   N     0.71701   0.07135   0.87735   0.00000  Uiso   1.00
C170   C     0.70016   1.00274   0.96255   0.00000  Uiso   1.00
C171   C     0.66510   0.01592   0.97336   0.00000  Uiso   1.00
C172   C     0.65063   0.99498   0.00464   0.00000  Uiso   1.00
C173   C     0.67134   0.96099   0.02552   0.00000  Uiso   1.00
C174   C     0.70790   0.95070   0.01686   0.00000  Uiso   1.00
C175   C     0.72195   0.97105   0.98565   0.00000  Uiso   1.00
H176   H     0.75339   0.12725   0.83655   0.00000  Uiso   1.00
H177   H     0.78557   0.14843   0.77998   0.00000  Uiso   1.00
H178   H     0.78914   1.01433   0.73802   0.00000  Uiso   1.00
H179   H     0.75764   0.99321   0.79441   0.00000  Uiso   1.00
H180   H     0.64793   0.04056   0.95611   0.00000  Uiso   1.00
H181   H     0.62252   0.00378   0.01089   0.00000  Uiso   1.00
H182   H     0.72516   0.92545   0.03304   0.00000  Uiso   1.00
H183   H     0.74944   0.96083   0.97858   0.00000  Uiso   1.00
C184   C     0.78959   0.02027   0.45988   0.00000  Uiso   1.00
C185   C     0.82769   0.01306   0.48141   0.00000  Uiso   1.00
C186   C     0.84011   0.02909   0.52318   0.00000  Uiso   1.00
C187   C     0.81424   0.05135   0.54398   0.00000  Uiso   1.00
C188   C     0.77575   0.05662   0.52295   0.00000  Uiso   1.00
C189   C     0.76365   0.04155   0.48127   0.00000  Uiso   1.00
C190   C     0.77664   0.00824   0.41472   0.00000  Uiso   1.00
N191   N     0.74979   0.03267   0.39087   0.00000  Uiso   1.00
N192   N     0.73604   0.02153   0.35058   0.00000  Uiso   1.00
C193   C     0.74835   0.98539   0.33230   0.00000  Uiso   1.00
N194   N     0.77563   0.96100   0.35601   0.00000  Uiso   1.00
N195   N     0.78975   0.97242   0.39647   0.00000  Uiso   1.00
C196   C     0.72932   0.97172   0.28868   0.00000  Uiso   1.00
C197   C     0.72979   0.92852   0.27313   0.00000  Uiso   1.00
C198   C     0.70526   0.91485   0.23491   0.00000  Uiso   1.00
C199   C     0.67995   0.94424   0.21241   0.00000  Uiso   1.00
C200   C     0.68176   0.98784   0.22638   0.00000  Uiso   1.00
C201   C     0.70636   1.00150   0.26388   0.00000  Uiso   1.00
H202   H     0.84813   0.99661   0.46552   0.00000  Uiso   1.00
H203   H     0.86995   1.02467   0.53899   0.00000  Uiso   1.00
H204   H     0.75525   0.07367   0.53829   0.00000  Uiso   1.00
H205   H     0.73397   0.04701   0.46554   0.00000  Uiso   1.00
H206   H     0.74738   0.90494   0.29154   0.00000  Uiso   1.00
H207   H     0.70428   0.88103   0.22444   0.00000  Uiso   1.00
H208   H     0.66297   0.01115   0.20896   0.00000  Uiso   1.00
H209   H     0.70599   0.03519   0.27436   0.00000  Uiso   1.00
C210   C     0.29003   0.50856   0.52465   0.00000  Uiso   1.00
C211   C     0.32747   0.51931   0.51883   0.00000  Uiso   1.00
C212   C     0.34269   0.49837   0.48665   0.00000  Uiso   1.00
C213   C     0.32078   0.46626   0.45958   0.00000  Uiso   1.00
C214   C     0.28237   0.45784   0.46358   0.00000  Uiso   1.00
C215   C     0.26720   0.47872   0.49569   0.00000  Uiso   1.00
C216   C     0.27600   0.52512   0.56258   0.00000  Uiso   1.00
N217   N     0.24254   0.50905   0.57109   0.00000  Uiso   1.00
N218   N     0.23133   0.52066   0.60676   0.00000  Uiso   1.00
C219   C     0.25306   0.54885   0.63564   0.00000  Uiso   1.00
N220   N     0.28626   0.56561   0.62690   0.00000  Uiso   1.00
N221   N     0.29756   0.55385   0.59118   0.00000  Uiso   1.00
C222   C     0.24104   0.55974   0.67620   0.00000  Uiso   1.00
C223   C     0.25936   0.59340   0.70417   0.00000  Uiso   1.00
C224   C     0.24687   0.60362   0.74192   0.00000  Uiso   1.00
C225   C     0.21610   0.58014   0.75246   0.00000  Uiso   1.00
C226   C     0.19848   0.54601   0.72487   0.00000  Uiso   1.00
C227   C     0.21072   0.53598   0.68732   0.00000  Uiso   1.00
H228   H     0.34577   0.54233   0.54035   0.00000  Uiso   1.00
H229   H     0.37244   0.50561   0.48460   0.00000  Uiso   1.00
H230   H     0.26457   0.43352   0.44317   0.00000  Uiso   1.00
H231   H     0.23807   0.46998   0.49885   0.00000  Uiso   1.00
H232   H     0.28284   0.61231   0.69654   0.00000  Uiso   1.00
H233   H     0.26061   0.63044   0.76232   0.00000  Uiso   1.00
H234   H     0.17450   0.52744   0.73185   0.00000  Uiso   1.00
H235   H     0.19615   0.50957   0.66689   0.00000  Uiso   1.00
C236   C     0.21234   0.48627   0.04034   0.00000  Uiso   1.00
C237   C     0.17239   0.49244   0.02702   0.00000  Uiso   1.00
C238   C     0.15838   0.51530   0.99135   0.00000  Uiso   1.00
C239   C     0.18392   0.53314   0.96819   0.00000  Uiso   1.00
C240   C     0.22372   0.52424   0.97945   0.00000  Uiso   1.00
C241   C     0.23784   0.50076   0.01532   0.00000  Uiso   1.00
C242   C     0.22684   0.46892   0.08228   0.00000  Uiso   1.00
N243   N     0.26070   0.44717   0.09104   0.00000  Uiso   1.00
N244   N     0.27391   0.43348   0.12964   0.00000  Uiso   1.00
C245   C     0.25405   0.44147   0.16102   0.00000  Uiso   1.00
N246   N     0.22035   0.46331   0.15225   0.00000  Uiso   1.00
N247   N     0.20690   0.47644   0.11362   0.00000  Uiso   1.00
C248   C     0.27043   0.42998   0.20462   0.00000  Uiso   1.00
C249   C     0.26869   0.45947   0.23846   0.00000  Uiso   1.00
C250   C     0.28964   0.45224   0.27895   0.00000  Uiso   1.00
C251   C     0.31139   0.41463   0.28650   0.00000  Uiso   1.00
C252   C     0.31046   0.38343   0.25340   0.00000  Uiso   1.00
C253   C     0.29060   0.39136   0.21259   0.00000  Uiso   1.00
H254   H     0.15198   0.48102   0.04521   0.00000  Uiso   1.00
H255   H     0.12746   0.52102   0.98313   0.00000  Uiso   1.00
H256   H     0.24409   0.53775   0.96236   0.00000  Uiso   1.00
H257   H     0.26885   0.49640   0.02500   0.00000  Uiso   1.00
H258   H     0.25342   0.48956   0.23304   0.00000  Uiso   1.00
H259   H     0.29058   0.47705   0.30387   0.00000  Uiso   1.00
H260   H     0.32780   0.35467   0.25823   0.00000  Uiso   1.00
H261   H     0.29212   0.36808   0.18699   0.00000  Uiso   1.00
C262   C     0.18434   0.23987   0.44708   0.00000  Uiso   1.00
C263   C     0.21369   0.25851   0.47915   0.00000  Uiso   1.00
C264   C     0.24841   0.27368   0.47000   0.00000  Uiso   1.00
C265   C     0.25426   0.27130   0.42846   0.00000  Uiso   1.00
C266   C     0.22545   0.25161   0.39649   0.00000  Uiso   1.00
C267   C     0.19090   0.23568   0.40578   0.00000  Uiso   1.00
C268   C     0.14638   0.22757   0.45659   0.00000  Uiso   1.00
N269   N     0.12187   0.19860   0.43126   0.00000  Uiso   1.00
N270   N     0.08733   0.18877   0.43983   0.00000  Uiso   1.00
C271   C     0.07580   0.20803   0.47369   0.00000  Uiso   1.00
N272   N     0.10033   0.23692   0.49884   0.00000  Uiso   1.00
N273   N     0.13488   0.24640   0.49054   0.00000  Uiso   1.00
C274   C     0.03776   0.19772   0.48406   0.00000  Uiso   1.00
C275   C     0.02067   0.22813   0.50784   0.00000  Uiso   1.00
C276   C     0.98725   0.21746   0.52232   0.00000  Uiso   1.00
C277   C     0.97034   0.17591   0.51382   0.00000  Uiso   1.00
C278   C     0.98608   0.14608   0.48810   0.00000  Uiso   1.00
C279   C     0.01946   0.15703   0.47306   0.00000  Uiso   1.00
H280   H     0.20953   0.26211   0.51131   0.00000  Uiso   1.00
H281   H     0.27006   0.28883   0.49520   0.00000  Uiso   1.00
H282   H     0.22927   0.24935   0.36415   0.00000  Uiso   1.00
H283   H     0.16873   0.22172   0.38040   0.00000  Uiso   1.00
H284   H     0.03374   0.25998   0.51621   0.00000  Uiso   1.00
H285   H     0.97568   0.24124   0.54186   0.00000  Uiso   1.00
H286   H     0.97358   0.11381   0.48108   0.00000  Uiso   1.00
H287   H     0.03201   0.13303   0.45466   0.00000  Uiso   1.00
C288   C     1.01647   0.98260   0.71825   0.00000  Uiso   1.00
C289   C     1.01550   0.99544   0.67705   0.00000  Uiso   1.00
C290   C     0.99337   0.03093   0.66179   0.00000  Uiso   1.00
C291   C     0.97193   0.05395   0.68752   0.00000  Uiso   1.00
C292   C     0.97628   0.04377   0.72988   0.00000  Uiso   1.00
C293   C     0.99846   1.00869   0.74512   0.00000  Uiso   1.00
C294   C     1.03131   0.93978   0.73194   0.00000  Uiso   1.00
N295   N     1.02049   0.92274   0.76566   0.00000  Uiso   1.00
N296   N     1.03013   0.88281   0.77635   0.00000  Uiso   1.00
C297   C     1.05103   0.85793   0.75383   0.00000  Uiso   1.00
N298   N     1.06255   0.87505   0.72040   0.00000  Uiso   1.00
N299   N     1.05261   0.91512   0.70946   0.00000  Uiso   1.00
C300   C     0.06040   0.81314   0.76609   0.00000  Uiso   1.00
C301   C     0.09190   0.79104   0.75485   0.00000  Uiso   1.00
C302   C     0.10285   0.75086   0.77151   0.00000  Uiso   1.00
C303   C     0.08231   0.73220   0.79944   0.00000  Uiso   1.00
C304   C     0.04920   0.75303   0.80795   0.00000  Uiso   1.00
C305   C     0.03850   0.79292   0.79163   0.00000  Uiso   1.00
H306   H     1.02952   0.97641   0.65571   0.00000  Uiso   1.00
H307   H     0.99054   0.03809   0.62896   0.00000  Uiso   1.00
H308   H     0.96052   0.06124   0.75062   0.00000  Uiso   1.00
H309   H     0.99949   1.00046   0.77739   0.00000  Uiso   1.00
H310   H     0.10917   0.80575   0.73499   0.00000  Uiso   1.00
H311   H     0.12865   0.73575   0.76451   0.00000  Uiso   1.00
H312   H     0.03248   0.73947   0.82898   0.00000  Uiso   1.00
H313   H     0.01358   0.80860   0.80017   0.00000  Uiso   1.00
C314   C     0.02472   0.45205   0.80481   0.00000  Uiso   1.00
C315   C     0.03682   0.47152   0.77134   0.00000  Uiso   1.00
C316   C     0.06210   0.50733   0.77908   0.00000  Uiso   1.00
C317   C     0.07444   0.52517   0.82019   0.00000  Uiso   1.00
C318   C     0.06083   0.50706   0.85350   0.00000  Uiso   1.00
C319   C     0.03665   0.47011   0.84594   0.00000  Uiso   1.00
C320   C     1.00216   0.41129   0.79646   0.00000  Uiso   1.00
N321   N     1.01606   0.37501   0.81573   0.00000  Uiso   1.00
N322   N     0.99900   0.33662   0.80335   0.00000  Uiso   1.00
C323   C     0.96710   0.33324   0.77167   0.00000  Uiso   1.00
N324   N     0.95266   0.36977   0.75328   0.00000  Uiso   1.00
N325   N     0.97003   0.40800   0.76521   0.00000  Uiso   1.00
C326   C     0.95177   0.29061   0.75303   0.00000  Uiso   1.00
C327   C     0.91250   0.28551   0.73321   0.00000  Uiso   1.00
C328   C     0.89967   0.24855   0.70755   0.00000  Uiso   1.00
C329   C     0.92616   0.21678   0.70049   0.00000  Uiso   1.00
C330   C     0.96474   0.22019   0.72288   0.00000  Uiso   1.00
C331   C     0.97739   0.25672   0.74931   0.00000  Uiso   1.00
H332   H     0.02805   0.45785   0.73943   0.00000  Uiso   1.00
H333   H     0.07237   0.52087   0.75305   0.00000  Uiso   1.00
H334   H     0.07029   0.52027   0.88554   0.00000  Uiso   1.00
H335   H     0.02747   0.45545   0.87206   0.00000  Uiso   1.00
H336   H     0.89219   0.31107   0.73592   0.00000  Uiso   1.00
H337   H     0.86973   0.24646   0.69070   0.00000  Uiso   1.00
H338   H     0.98557   0.19581   0.71809   0.00000  Uiso   1.00
H339   H     1.00786   0.25990   0.76413   0.00000  Uiso   1.00
C340   C     0.81671   0.72695   0.06994   0.00000  Uiso   1.00
C341   C     0.81656   0.75011   0.10815   0.00000  Uiso   1.00
C342   C     0.78232   0.76818   0.11601   0.00000  Uiso   1.00
C343   C     0.74763   0.76375   0.08567   0.00000  Uiso   1.00
C344   C     0.74736   0.73912   0.04817   0.00000  Uiso   1.00
C345   C     0.78158   0.72070   0.04045   0.00000  Uiso   1.00
C346   C     0.85364   0.71205   0.05955   0.00000  Uiso   1.00
N347   N     0.85359   0.68141   0.02823   0.00000  Uiso   1.00
N348   N     0.88652   0.67037   1.01662   0.00000  Uiso   1.00
C349   C     0.92088   0.68969   1.03559   0.00000  Uiso   1.00
N350   N     0.92102   0.72005   1.06726   0.00000  Uiso   1.00
N351   N     0.88806   0.73091   0.07907   0.00000  Uiso   1.00
C352   C     0.95678   0.67932   1.02016   0.00000  Uiso   1.00
C353   C     0.99036   0.70593   1.03138   0.00000  Uiso   1.00
C354   C     0.02260   0.69812   1.01290   0.00000  Uiso   1.00
C355   C     0.02177   0.66339   0.98327   0.00000  Uiso   1.00
C356   C     0.98896   0.63575   0.97375   0.00000  Uiso   1.00
C357   C     0.95685   0.64368   0.99181   0.00000  Uiso   1.00
H358   H     0.84307   0.75509   0.13164   0.00000  Uiso   1.00
H359   H     0.78332   0.78695   0.14525   0.00000  Uiso   1.00
H360   H     0.72107   0.73542   0.02413   0.00000  Uiso   1.00
H361   H     0.78083   0.70320   0.01058   0.00000  Uiso   1.00
H362   H     0.99128   0.73354   1.05335   0.00000  Uiso   1.00
H363   H     0.04768   0.71974   1.02095   0.00000  Uiso   1.00
H364   H    -0.01246   0.60854   0.95121   0.00000  Uiso   1.00
H365   H     0.93171   0.62225   0.98283   0.00000  Uiso   1.00
C366   C     0.55410   0.72372   0.23536   0.00000  Uiso   1.00
C367   C     0.56878   0.71141   0.19955   0.00000  Uiso   1.00
C368   C     0.58306   0.74233   0.17670   0.00000  Uiso   1.00
C369   C     0.58216   0.78642   0.18845   0.00000  Uiso   1.00
C370   C     0.56739   0.79915   0.22422   0.00000  Uiso   1.00
C371   C     0.55389   0.76780   0.24796   0.00000  Uiso   1.00
C372   C     0.53776   0.69006   0.25763   0.00000  Uiso   1.00
N373   N     0.54086   0.69279   0.30015   0.00000  Uiso   1.00
N374   N     0.52687   0.66103   0.31960   0.00000  Uiso   1.00
C375   C     0.50903   0.62573   0.29708   0.00000  Uiso   1.00
N376   N     0.50583   0.62332   0.25468   0.00000  Uiso   1.00
N377   N     0.52012   0.65466   0.23540   0.00000  Uiso   1.00
C378   C     0.49186   0.59090   0.31712   0.00000  Uiso   1.00
C379   C     0.45725   0.57103   0.29523   0.00000  Uiso   1.00
C380   C     0.44162   0.53568   0.31118   0.00000  Uiso   1.00
C381   C     0.46040   0.51895   0.34931   0.00000  Uiso   1.00
C382   C     0.49476   0.53924   0.37195   0.00000  Uiso   1.00
C383   C     0.51031   0.57535   0.35602   0.00000  Uiso   1.00
H384   H     0.56929   0.67767   0.18919   0.00000  Uiso   1.00
H385   H     0.59411   0.73172   0.14911   0.00000  Uiso   1.00
H386   H     0.56670   0.83304   0.23397   0.00000  Uiso   1.00
H387   H     0.54240   0.77794   0.27537   0.00000  Uiso   1.00
H388   H     0.44230   0.58276   0.26544   0.00000  Uiso   1.00
H389   H     0.41498   0.52099   0.29308   0.00000  Uiso   1.00
H390   H     0.50973   0.52688   0.40143   0.00000  Uiso   1.00
H391   H     0.53729   0.59009   0.37321   0.00000  Uiso   1.00
loop_
_geom_bond_atom_site_label_1
_geom_bond_atom_site_label_2
_geom_bond_distance
_geom_bond_site_symmetry_2
_ccdc_geom_bond_type
Ce0    O9      2.242   .     S
Ce0    O10     2.307   .     S
Ce0    O11     2.276   .     S
Ce0    O12     2.330   .     S
Ce0    O14     2.300   .     S
Ce0    O15     2.200   .     S
Ce0    O19     2.351   .     S
Ce1    O8      2.345   .     S
Ce1    O9      2.313   .     S
Ce1    O13     2.298   .     S
Ce1    O15     2.249   .     S
Ce1    O16     2.256   .     S
Ce1    O17     2.298   .     S
Ce1    O18     2.299   .     S
C2     O8      1.205   .     D
C2     O9      1.360   .     S
C2     C95     1.472   .     S
C3     O10     1.281   .     A
C3     O11     1.277   .     A
C3     C225    1.483   .     S
C4     O12     1.305   .     A
C4     O13     1.301   .     A
C4     C303    1.484   .     S
C5     O14     1.225   .     D
C5     O15     1.389   .     S
C5     C317    1.469   .     S
C6     O16     1.272   .     A
C6     O17     1.280   .     A
C6     C355    1.476   .     S
C7     O18     1.300   .     A
C7     O19     1.308   .     A
C7     C239    1.483   .     S
Ce20   O29     2.240   .     S
Ce20   O30     2.300   .     S
Ce20   O31     2.271   .     S
Ce20   O32     2.332   .     S
Ce20   O34     2.272   .     S
Ce20   O35     2.218   .     S
Ce20   O39     2.326   .     S
Ce21   O28     2.325   .     S
Ce21   O29     2.312   .     S
Ce21   O33     2.281   .     S
Ce21   O35     2.268   .     S
Ce21   O36     2.264   .     S
Ce21   O37     2.283   .     S
Ce21   O38     2.315   .     S
C22    O28     1.209   .     D
C22    O29     1.373   .     S
C22    C83     1.472   .     S
C23    O30     1.280   .     A
C23    O31     1.276   .     A
C23    C121    1.465   .     S
C24    O32     1.305   .     A
C24    O33     1.298   .     A
C24    C173    1.480   .     S
C25    O34     1.225   .     D
C25    O35     1.397   .     S
C25    C199    1.466   .     S
C26    O36     1.276   .     A
C26    O37     1.280   .     A
C26    C343    1.475   .     S
C27    O38     1.303   .     A
C27    O39     1.302   .     A
C27    C369    1.470   .     S
Ce40   O49     2.253   .     S
Ce40   O50     2.296   .     S
Ce40   O51     2.268   .     S
Ce40   O52     2.344   .     S
Ce40   O54     2.330   .     S
Ce40   O55     2.268   .     S
Ce40   O59     2.343   .     S
Ce41   O48     2.319   .     S
Ce41   O49     2.275   .     S
Ce41   O53     2.306   .     S
Ce41   O55     2.246   .     S
Ce41   O56     2.277   .     S
Ce41   O57     2.269   .     S
Ce41   O58     2.324   .     S
C42    O48     1.207   .     D
C42    O49     1.368   .     S
C42    C187    1.469   .     S
C43    O50     1.277   .     A
C43    O51     1.273   .     A
C43    C277    1.478   .     S
C44    O52     1.306   .     A
C44    O53     1.301   .     A
C44    C291    1.479   .     S
C45    O54     1.204   .     D
C45    O55     1.364   .     S
C45    C329    1.470   .     S
C46    O56     1.278   .     A
C46    O57     1.277   .     A
C46    C161    1.472   .     S
C47    O58     1.307   .     A
C47    O59     1.307   .     A
C47    C135    1.477   .     S
Ce60   O69     2.306   .     S
Ce60   O70     2.313   .     S
Ce60   O71     2.264   .     S
Ce60   O72     2.296   .     S
Ce60   O74     2.308   .     S
Ce60   O75     2.303   .     S
Ce60   O79     2.257   .     S
Ce61   O68     2.275   .     S
Ce61   O69     2.268   .     S
Ce61   O73     2.314   .     S
Ce61   O75     2.281   .     S
Ce61   O76     2.253   .     S
Ce61   O77     2.255   .     S
Ce61   O78     2.437   .     S
C62    O68     1.231   .     D
C62    O69     1.406   .     S
C62    C147    1.479   .     S
C63    O70     1.276   .     A
C63    O71     1.268   .     A
C63    C381    1.475   .     S
C64    O72     1.285   .     A
C64    O73     1.288   .     A
C64    C213    1.486   .     S
C65    O74     1.215   .     D
C65    O75     1.394   .     S
C65    C251    1.471   .     S
C66    O76     1.288   .     A
C66    O77     1.291   .     A
C66    C265    1.476   .     S
C67    O78     1.320   .     A
C67    O79     1.281   .     A
C67    C109    1.475   .     S
C80    C85     1.405   .     A
C80    C86     1.477   .     S
C80    C81     1.404   1_554 A
C81    H98     1.083   .     S
C81    C80     1.404   1_556 A
C81    C82     1.398   1_556 A
C82    C83     1.403   .     A
C82    C81     1.398   1_554 A
C82    H99     1.083   1_554 S
C83    C84     1.403   .     A
C84    C85     1.401   .     A
C84    H100    1.082   .     S
C85    H101    1.084   .     S
C86    N87     1.359   .     A
C86    N91     1.358   1_554 A
N87    N88     1.333   .     A
N88    C89     1.358   1_554 A
C89    N90     1.358   .     A
C89    C92     1.476   .     S
C89    N88     1.358   1_556 A
N90    N91     1.332   .     A
N91    C86     1.358   1_556 A
C92    C93     1.403   .     A
C92    C97     1.406   .     A
C93    C94     1.396   .     A
C93    H102    1.083   .     S
C94    C95     1.402   .     A
C94    H103    1.083   .     S
C95    C96     1.404   .     A
C96    C97     1.401   .     A
C96    H104    1.083   .     S
C97    H105    1.083   1_556 S
H99    C82     1.083   1_556 S
H105   C97     1.083   1_554 S
C106   C107    1.401   .     A
C106   C111    1.405   .     A
C106   C112    1.474   .     S
C107   C108    1.392   .     A
C107   H124    1.083   .     S
C108   C109    1.404   .     A
C108   H125    1.083   .     S
C109   C110    1.405   .     A
C110   C111    1.401   .     A
C110   H126    1.083   .     S
C111   H127    1.083   .     S
C112   N113    1.359   .     A
C112   N117    1.357   .     A
N113   N114    1.333   .     A
N114   C115    1.359   .     A
C115   N116    1.356   .     A
C115   C118    1.471   .     S
N116   N117    1.330   .     A
C118   C119    1.402   .     A
C118   C123    1.405   .     A
C119   H128    1.083   .     S
C119   C120    1.393   1_545 A
C120   C121    1.402   .     A
C120   H129    1.084   .     S
C120   C119    1.393   1_565 A
C121   C122    1.402   1_565 A
C122   C123    1.401   .     A
C122   H130    1.083   .     S
C122   C121    1.402   1_545 A
C123   H131    1.083   .     S
C132   C133    1.403   .     A
C132   C137    1.408   .     A
C132   C138    1.480   .     S
C133   C134    1.391   .     A
C133   H150    1.083   .     S
C134   C135    1.403   .     A
C134   H151    1.083   .     S
C135   C136    1.405   .     A
C136   C137    1.406   .     A
C136   H152    1.083   .     S
C137   H153    1.083   .     S
C138   N139    1.359   .     A
C138   N143    1.357   .     A
N139   N140    1.335   .     A
N140   C141    1.361   .     A
C141   N142    1.357   .     A
C141   C144    1.485   .     S
N142   N143    1.330   .     A
C144   C145    1.406   .     A
C144   C149    1.408   .     A
C145   C146    1.396   .     A
C145   H154    1.083   .     S
C146   C147    1.404   .     A
C146   H155    1.083   .     S
C147   C148    1.405   .     A
C148   C149    1.403   .     A
C148   H156    1.083   .     S
C149   H157    1.083   .     S
C158   C159    1.404   .     A
C158   C163    1.405   .     A
C158   C164    1.475   .     S
C159   C160    1.400   .     A
C159   H176    1.083   .     S
C160   C161    1.405   .     A
C160   H177    1.083   .     S
C161   C162    1.402   .     A
C162   C163    1.393   .     A
C162   H178    1.083   1_545 S
C163   H179    1.083   1_545 S
C164   N169    1.361   .     A
C164   N165    1.355   1_545 A
N165   N166    1.327   .     A
N165   C164    1.355   1_565 A
N166   C167    1.356   .     A
C167   C170    1.474   .     S
C167   N168    1.359   1_565 A
N168   N169    1.335   .     A
N168   C167    1.359   1_545 A
C170   C175    1.401   .     A
C170   C171    1.407   1_565 A
C171   H180    1.083   .     S
C171   C170    1.407   1_545 A
C171   C172    1.405   1_546 A
C172   C173    1.407   .     A
C172   C171    1.405   1_564 A
C172   H181    1.083   1_565 S
C173   C174    1.406   .     A
C174   H182    1.083   .     S
C174   C175    1.387   1_554 A
C175   H183    1.084   .     S
C175   C174    1.387   1_556 A
H178   C162    1.083   1_565 S
H179   C163    1.083   1_565 S
H181   C172    1.083   1_545 S
C184   C185    1.405   .     A
C184   C189    1.403   .     A
C184   C190    1.472   .     S
C185   C186    1.402   .     A
C185   H202    1.083   1_545 S
C186   C187    1.405   .     A
C186   H203    1.083   1_545 S
C187   C188    1.401   .     A
C188   C189    1.390   .     A
C188   H204    1.083   .     S
C189   H205    1.083   .     S
C190   N191    1.354   .     A
C190   N195    1.360   1_545 A
N191   N192    1.327   .     A
N192   C193    1.356   1_545 A
C193   N194    1.360   .     A
C193   C196    1.478   .     S
C193   N192    1.356   1_565 A
N194   N195    1.336   .     A
N195   C190    1.360   1_565 A
C196   C197    1.408   .     A
C196   C201    1.404   .     A
C197   C198    1.404   .     A
C197   H206    1.083   .     S
C198   C199    1.403   .     A
C198   H207    1.083   .     S
C199   C200    1.400   .     A
C200   C201    1.388   .     A
C200   H208    1.083   1_565 S
C201   H209    1.082   1_565 S
H202   C185    1.083   1_565 S
H203   C186    1.083   1_565 S
H208   C200    1.083   1_545 S
H209   C201    1.082   1_545 S
C210   C211    1.406   .     A
C210   C215    1.407   .     A
C210   C216    1.486   .     S
C211   C212    1.401   .     A
C211   H228    1.083   .     S
C212   C213    1.408   .     A
C212   H229    1.083   .     S
C213   C214    1.406   .     A
C214   C215    1.398   .     A
C214   H230    1.083   .     S
C215   H231    1.083   .     S
C216   N217    1.357   .     A
C216   N221    1.361   .     A
N217   N218    1.330   .     A
N218   C219    1.358   .     A
C219   N220    1.360   .     A
C219   C222    1.486   .     S
N220   N221    1.335   .     A
C222   C223    1.409   .     A
C222   C227    1.405   .     A
C223   C224    1.406   .     A
C223   H232    1.083   .     S
C224   C225    1.405   .     A
C224   H233    1.083   .     S
C225   C226    1.405   .     A
C226   C227    1.394   .     A
C226   H234    1.083   .     S
C227   H235    1.083   .     S
C236   C237    1.401   .     A
C236   C241    1.409   .     A
C236   C242    1.481   .     S
C237   H254    1.084   .     S
C237   C238    1.392   1_554 A
C238   C239    1.407   .     A
C238   H255    1.084   .     S
C238   C237    1.392   1_556 A
C239   C240    1.406   .     A
C240   H256    1.083   .     S
C240   C241    1.408   1_556 A
C241   H257    1.083   .     S
C241   C240    1.408   1_554 A
C242   N243    1.359   .     A
C242   N247    1.359   .     A
N243   N244    1.335   .     A
N244   C245    1.361   .     A
C245   N246    1.356   .     A
C245   C248    1.477   .     S
N246   N247    1.331   .     A
C248   C249    1.405   .     A
C248   C253    1.403   .     A
C249   C250    1.399   .     A
C249   H258    1.083   .     S
C250   C251    1.403   .     A
C250   H259    1.084   .     S
C251   C252    1.405   .     A
C252   C253    1.400   .     A
C252   H260    1.083   .     S
C253   H261    1.083   .     S
C262   C263    1.406   .     A
C262   C267    1.405   .     A
C262   C268    1.480   .     S
C263   C264    1.396   .     A
C263   H280    1.083   .     S
C264   C265    1.402   .     A
C264   H281    1.083   .     S
C265   C266    1.406   .     A
C266   C267    1.400   .     A
C266   H282    1.083   .     S
C267   H283    1.083   .     S
C268   N269    1.361   .     A
C268   N273    1.356   .     A
N269   N270    1.335   .     A
N270   C271    1.360   .     A
C271   N272    1.357   .     A
C271   C274    1.479   .     S
N272   N273    1.329   .     A
C274   C275    1.404   .     A
C274   C279    1.406   .     A
C275   H284    1.083   .     S
C275   C276    1.393   1_455 A
C276   C277    1.404   .     A
C276   H285    1.083   .     S
C276   C275    1.393   1_655 A
C277   C278    1.406   .     A
C278   H286    1.083   .     S
C278   C279    1.404   1_655 A
C279   H287    1.083   .     S
C279   C278    1.404   1_455 A
C288   C289    1.407   .     A
C288   C293    1.406   .     A
C288   C294    1.484   .     S
C289   H306    1.083   .     S
C289   C290    1.403   1_565 A
C290   C291    1.407   .     A
C290   H307    1.083   .     S
C290   C289    1.403   1_545 A
C291   C292    1.403   .     A
C292   H308    1.083   .     S
C292   C293    1.394   1_545 A
C293   H309    1.083   .     S
C293   C292    1.394   1_565 A
C294   N295    1.356   .     A
C294   N299    1.361   .     A
N295   N296    1.328   .     A
N296   C297    1.356   .     A
C297   N298    1.360   .     A
C297   C300    1.483   1_655 S
N298   N299    1.337   .     A
C300   C301    1.407   .     A
C300   C305    1.404   .     A
C300   C297    1.483   1_455 S
C301   C302    1.406   .     A
C301   H310    1.083   .     S
C302   C303    1.409   .     A
C302   H311    1.083   .     S
C303   C304    1.404   .     A
C304   C305    1.392   .     A
C304   H312    1.083   .     S
C305   H313    1.083   .     S
C314   C315    1.403   .     A
C314   C319    1.403   .     A
C314   C320    1.469   1_455 S
C315   C316    1.396   .     A
C315   H332    1.083   .     S
C316   C317    1.401   .     A
C316   H333    1.083   .     S
C317   C318    1.405   .     A
C318   C319    1.401   .     A
C318   H334    1.084   .     S
C319   H335    1.083   .     S
C320   N321    1.358   .     A
C320   N325    1.356   .     A
C320   C314    1.469   1_655 S
N321   N322    1.333   .     A
N322   C323    1.359   .     A
C323   N324    1.358   .     A
C323   C326    1.476   .     S
N324   N325    1.331   .     A
C326   C327    1.404   .     A
C326   C331    1.405   .     A
C327   C328    1.398   .     A
C327   H336    1.083   .     S
C328   C329    1.403   .     A
C328   H337    1.083   .     S
C329   C330    1.403   .     A
C330   C331    1.398   .     A
C330   H338    1.084   .     S
C331   H339    1.083   .     S
C340   C341    1.403   .     A
C340   C345    1.407   .     A
C340   C346    1.478   .     S
C341   C342    1.396   .     A
C341   H358    1.082   .     S
C342   C343    1.405   .     A
C342   H359    1.083   .     S
C343   C344    1.403   .     A
C344   C345    1.398   .     A
C344   H360    1.083   .     S
C345   H361    1.083   .     S
C346   N347    1.356   .     A
C346   N351    1.360   .     A
N347   N348    1.330   1_554 A
N348   C349    1.359   .     A
N348   N347    1.330   1_556 A
C349   N350    1.358   .     A
C349   C352    1.481   .     S
N350   N351    1.333   1_556 A
N351   N350    1.333   1_554 A
C352   C353    1.409   .     A
C352   C357    1.403   .     A
C353   H362    1.082   .     S
C353   C354    1.403   1_655 A
C354   C355    1.404   .     A
C354   H363    1.083   .     S
C354   C353    1.403   1_455 A
C355   C356    1.404   1_455 A
C356   C357    1.391   .     A
C356   C355    1.404   1_655 A
C356   H364    1.083   1_655 S
C357   H365    1.083   .     S
H364   C356    1.083   1_455 S
C366   C367    1.402   .     A
C366   C371    1.406   .     A
C366   C372    1.472   .     S
C367   C368    1.389   .     A
C367   H384    1.083   .     S
C368   C369    1.402   .     A
C368   H385    1.083   .     S
C369   C370    1.405   .     A
C370   C371    1.404   .     A
C370   H386    1.083   .     S
C371   H387    1.083   .     S
C372   N373    1.360   .     A
C372   N377    1.355   .     A
N373   N374    1.335   .     A
N374   C375    1.359   .     A
C375   N376    1.356   .     A
C375   C378    1.471   .     S
N376   N377    1.327   .     A
C378   C379    1.400   .     A
C378   C383    1.406   .     A
C379   C380    1.388   .     A
C379   H388    1.084   .     S
C380   C381    1.404   .     A
C380   H389    1.083   .     S
C381   C382    1.406   .     A
C382   C383    1.405   .     A
C382   H390    1.083   .     S
C383   H391    1.083   .     S
