data_lcy+N155+E59
_audit_creation_date              2025-01-21
_audit_creation_method            'Materials Studio'
_symmetry_space_group_name_H-M    'P1'
_symmetry_Int_Tables_number       1
_symmetry_cell_setting            triclinic
loop_
_symmetry_equiv_pos_as_xyz
  x,y,z
_cell_length_a                    35.9858
_cell_length_b                    35.5823
_cell_length_c                    36.2247
_cell_angle_alpha                 90.2776
_cell_angle_beta                  94.6647
_cell_angle_gamma                 95.6327
loop_
_atom_site_label
_atom_site_type_symbol
_atom_site_fract_x
_atom_site_fract_y
_atom_site_fract_z
_atom_site_U_iso_or_equiv
_atom_site_adp_type
_atom_site_occupancy
C0     C     0.16844   0.54728   0.82570   0.00000  Uiso   1.00
Ho1    Ho    0.15003   0.61234   0.85031   0.00000  Uiso   1.00
C2     C     0.07900   0.69203   0.94902   0.00000  Uiso   1.00
Ho3    Ho    0.10148   0.62904   0.92384   0.00000  Uiso   1.00
O4     O     0.15245   0.57084   0.80558   0.00000  Uiso   1.00
O5     O     0.17445   0.55824   0.85940   0.00000  Uiso   1.00
O6     O     0.09183   0.59321   0.82414   0.00000  Uiso   1.00
O7     O     0.10226   0.58771   0.87956   0.00000  Uiso   1.00
C8     C     0.07613   0.58487   0.85100   0.00000  Uiso   1.00
C9     C     0.17530   0.65622   0.92202   0.00000  Uiso   1.00
O10    O     0.16395   0.56977   0.89491   0.00000  Uiso   1.00
O11    O     0.13007   0.58039   0.94501   0.00000  Uiso   1.00
O12    O     0.09647   0.66931   0.96899   0.00000  Uiso   1.00
O13    O     0.07532   0.68225   0.91487   0.00000  Uiso   1.00
O14    O     0.16020   0.64865   0.94946   0.00000  Uiso   1.00
O15    O     0.14874   0.65360   0.89422   0.00000  Uiso   1.00
O16    O     0.09139   0.67448   0.88007   0.00000  Uiso   1.00
O17    O     0.12266   0.66100   0.82897   0.00000  Uiso   1.00
C18    C     0.10186   0.68144   0.84659   0.00000  Uiso   1.00
C19    C     0.15414   0.56277   0.92852   0.00000  Uiso   1.00
C20    C     0.57368   0.81581   0.17755   0.00000  Uiso   1.00
Ho21   Ho    0.62288   0.85368   0.14043   0.00000  Uiso   1.00
C22    C     0.71172   0.94606   0.05730   0.00000  Uiso   1.00
Ho23   Ho    0.67047   0.90117   0.09648   0.00000  Uiso   1.00
O24    O     0.56879   0.82076   0.14256   0.00000  Uiso   1.00
O25    O     0.60581   0.82921   0.19226   0.00000  Uiso   1.00
O26    O     0.56916   0.84544   0.10641   0.00000  Uiso   1.00
O27    O     0.62031   0.86517   0.08206   0.00000  Uiso   1.00
C28    C     0.58147   0.86174   0.07947   0.00000  Uiso   1.00
C29    C     0.71274   0.90561   0.15800   0.00000  Uiso   1.00
O30    O     0.60053   0.90752   0.15098   0.00000  Uiso   1.00
O31    O     0.63551   0.94479   0.11300   0.00000  Uiso   1.00
O32    O     0.72031   0.94069   0.09185   0.00000  Uiso   1.00
O33    O     0.68178   0.92679   0.04392   0.00000  Uiso   1.00
O34    O     0.72009   0.92475   0.13077   0.00000  Uiso   1.00
O35    O     0.67794   0.88377   0.15349   0.00000  Uiso   1.00
O36    O     0.69499   0.84743   0.08702   0.00000  Uiso   1.00
O37    O     0.65317   0.80856   0.11869   0.00000  Uiso   1.00
C38    C     0.68144   0.81427   0.09817   0.00000  Uiso   1.00
C39    C     0.60740   0.93829   0.13296   0.00000  Uiso   1.00
C40    C     0.79235   0.19755   0.60136   0.00000  Uiso   1.00
Ho41   Ho    0.84911   0.16181   0.62098   0.00000  Uiso   1.00
C42    C     0.90762   0.04263   0.65497   0.00000  Uiso   1.00
Ho43   Ho    0.91041   0.11575   0.64764   0.00000  Uiso   1.00
O44    O     0.80128   0.17006   0.58178   0.00000  Uiso   1.00
O45    O     0.81638   0.20876   0.62801   0.00000  Uiso   1.00
O46    O     0.82234   0.13394   0.56929   0.00000  Uiso   1.00
O47    O     0.86897   0.11179   0.60110   0.00000  Uiso   1.00
C48    C     0.84265   0.10783   0.57063   0.00000  Uiso   1.00
C49    C     0.90924   0.16237   0.70263   0.00000  Uiso   1.00
O50    O     0.89313   0.19178   0.59105   0.00000  Uiso   1.00
O51    O     0.94207   0.15961   0.61547   0.00000  Uiso   1.00
O52    O     0.88691   0.06337   0.67170   0.00000  Uiso   1.00
O53    O     0.93134   0.06149   0.63620   0.00000  Uiso   1.00
O54    O     0.93026   0.13687   0.70365   0.00000  Uiso   1.00
O55    O     0.89176   0.16713   0.66729   0.00000  Uiso   1.00
O56    O     0.85980   0.08768   0.67342   0.00000  Uiso   1.00
O57    O     0.81406   0.12530   0.65428   0.00000  Uiso   1.00
C58    C     0.82527   0.09642   0.67134   0.00000  Uiso   1.00
C59    C     0.92834   0.18602   0.59517   0.00000  Uiso   1.00
C60    C     0.41833   0.29903   0.30250   0.00000  Uiso   1.00
Ho61   Ho    0.36891   0.32202   0.34266   0.00000  Uiso   1.00
C62    C     0.35151   0.40923   0.45679   0.00000  Uiso   1.00
Ho63   Ho    0.35602   0.39546   0.38690   0.00000  Uiso   1.00
O64    O     0.40881   0.28194   0.33203   0.00000  Uiso   1.00
O65    O     0.40058   0.32806   0.29418   0.00000  Uiso   1.00
O66    O     0.42903   0.34369   0.36324   0.00000  Uiso   1.00
O67    O     0.39056   0.35092   0.39786   0.00000  Uiso   1.00
C68    C     0.42613   0.35811   0.39195   0.00000  Uiso   1.00
C69    C     0.30174   0.39149   0.33626   0.00000  Uiso   1.00
O70    O     0.39542   0.36739   0.30885   0.00000  Uiso   1.00
O71    O     0.39338   0.41969   0.34572   0.00000  Uiso   1.00
O72    O     0.37525   0.42714   0.43744   0.00000  Uiso   1.00
O73    O     0.32813   0.38520   0.43809   0.00000  Uiso   1.00
O74    O     0.30672   0.41784   0.35910   0.00000  Uiso   1.00
O75    O     0.32902   0.36583   0.34077   0.00000  Uiso   1.00
O76    O     0.32125   0.35078   0.41603   0.00000  Uiso   1.00
O77    O     0.34067   0.29752   0.39007   0.00000  Uiso   1.00
C78    C     0.32241   0.31424   0.41366   0.00000  Uiso   1.00
C79    C     0.40411   0.40280   0.31728   0.00000  Uiso   1.00
C80    C     0.30069   0.68977   0.98152   0.00000  Uiso   1.00
C81    C     0.36739   0.70627   0.97834   0.00000  Uiso   1.00
H82    H     0.42444   0.86124  -0.01303   0.00000  Uiso   1.00
C83    C     0.33038   0.74910   1.00822   0.00000  Uiso   1.00
C84    C     0.29847   0.72366   1.00095   0.00000  Uiso   1.00
N85    N     0.52636   0.84341   0.03748   0.00000  Uiso   1.00
N86    N     0.23621   0.68191   0.95197   0.00000  Uiso   1.00
O87    O     0.49360   0.88086   0.00058   0.00000  Uiso   1.00
O88    O     0.26754   0.63160   0.96572   0.00000  Uiso   1.00
H89    H     0.57426   0.87735   0.02230   0.00000  Uiso   1.00
H90    H     0.54594   0.89960   0.05334   0.00000  Uiso   1.00
H91    H     0.36931   0.81561  -0.02027   0.00000  Uiso   1.00
H92    H     0.49017   0.77235   1.02904   0.00000  Uiso   1.00
H93    H     0.43497   0.72834   1.02325   0.00000  Uiso   1.00
H94    H     0.52833   0.81716   0.04967   0.00000  Uiso   1.00
H95    H     0.33783   0.65526   0.95550   0.00000  Uiso   1.00
H96    H     0.22791   0.64091   0.90785   0.00000  Uiso   1.00
H97    H     0.21853   0.68794   0.89599   0.00000  Uiso   1.00
H98    H     0.39364   0.69964   0.96839   0.00000  Uiso   1.00
H99    H     0.27205   0.73082   1.00994   0.00000  Uiso   1.00
H100   H     0.32811   0.77543   1.02268   0.00000  Uiso   1.00
H101   H     0.23358   0.71035   0.95745   0.00000  Uiso   1.00
C102   C     0.42737   0.83236  -0.00499   0.00000  Uiso   1.00
C103   C     0.49507   0.85012   0.01517   0.00000  Uiso   1.00
C104   C     0.55729   0.87270   0.04642   0.00000  Uiso   1.00
C105   C     0.39802   0.76867   1.00135   0.00000  Uiso   1.00
C106   C     0.46214   0.82131   0.00948   0.00000  Uiso   1.00
C107   C     0.39563   0.80634  -0.00888   0.00000  Uiso   1.00
C108   C     0.46431   0.78315   1.01896   0.00000  Uiso   1.00
C109   C     0.43256   0.75730   1.01515   0.00000  Uiso   1.00
C110   C     0.33557   0.68090   0.97112   0.00000  Uiso   1.00
C111   C     0.26674   0.66578   0.96738   0.00000  Uiso   1.00
C112   C     0.21589   0.66632   0.91790   0.00000  Uiso   1.00
C113   C     0.36488   0.74083   0.99632   0.00000  Uiso   1.00
C114   C     0.55552   0.05709   0.16177   0.00000  Uiso   1.00
C115   C     0.50173   0.08994   0.17382   0.00000  Uiso   1.00
H116   H     0.51542   0.17672   0.31545   0.00000  Uiso   1.00
C117   C     0.55483   0.09178   0.21943   0.00000  Uiso   1.00
C118   C     0.57256   0.06862   0.19654   0.00000  Uiso   1.00
N119   N     0.44727   0.25069   0.27038   0.00000  Uiso   1.00
N120   N     0.58629   0.99938   0.15109   0.00000  Uiso   1.00
O121   O     0.47304   0.22875   0.32350   0.00000  Uiso   1.00
O122   O     0.57153   1.03789   0.10430   0.00000  Uiso   1.00
H123   H     0.47692   0.29643   0.30156   0.00000  Uiso   1.00
H124   H     0.45409   0.30875   0.25836   0.00000  Uiso   1.00
H125   H     0.53785   0.12567   0.28253   0.00000  Uiso   1.00
H126   H     0.43010   0.18738   0.22641   0.00000  Uiso   1.00
H127   H     0.45474   0.14065   0.19130   0.00000  Uiso   1.00
H128   H     0.43663   0.24576   0.24298   0.00000  Uiso   1.00
H129   H     0.50603   0.05862   0.12403   0.00000  Uiso   1.00
H130   H     0.57080   0.96968   0.09985   0.00000  Uiso   1.00
H131   H     0.55114   0.94965   0.13967   0.00000  Uiso   1.00
H132   H     0.47403   0.09609   0.16375   0.00000  Uiso   1.00
H133   H     0.59995   0.06032   0.20570   0.00000  Uiso   1.00
H134   H     0.57022   0.10103   0.24516   0.00000  Uiso   1.00
H135   H     0.59094   0.99644   0.17974   0.00000  Uiso   1.00
C136   C     0.50171   0.16839   0.28850   0.00000  Uiso   1.00
C137   C     0.46345   0.22313   0.29066   0.00000  Uiso   1.00
C138   C     0.45109   0.29007   0.28269   0.00000  Uiso   1.00
C139   C     0.50041   0.12957   0.23237   0.00000  Uiso   1.00
C140   C     0.47236   0.18784   0.27275   0.00000  Uiso   1.00
C141   C     0.51520   0.13939   0.26887   0.00000  Uiso   1.00
C142   C     0.45453   0.17517   0.23848   0.00000  Uiso   1.00
C143   C     0.46867   0.14709   0.21834   0.00000  Uiso   1.00
C144   C     0.52008   0.06799   0.15057   0.00000  Uiso   1.00
C145   C     0.57285   1.03176   0.13750   0.00000  Uiso   1.00
C146   C     0.57719   0.96431   0.12980   0.00000  Uiso   1.00
C147   C     0.51885   0.10300   0.20865   0.00000  Uiso   1.00
C148   C     0.54122   0.32302   0.42908   0.00000  Uiso   1.00
C149   C     0.60770   0.31482   0.43516   0.00000  Uiso   1.00
H150   H     0.68067   0.31303   0.57685   0.00000  Uiso   1.00
C151   C     0.56783   0.29023   0.48204   0.00000  Uiso   1.00
C152   C     0.53678   0.30276   0.46192   0.00000  Uiso   1.00
N153   N     0.74577   0.23014   0.56378   0.00000  Uiso   1.00
N154   N     0.48396   0.35613   0.43133   0.00000  Uiso   1.00
O155   O     0.74421   0.28736   0.58936   0.00000  Uiso   1.00
O156   O     0.50901   0.34725   0.37747   0.00000  Uiso   1.00
H157   H     0.75205   0.22913   0.62302   0.00000  Uiso   1.00
H158   H     0.73351   0.18591   0.60010   0.00000  Uiso   1.00
H159   H     0.62565   0.32528   0.53727   0.00000  Uiso   1.00
H160   H     0.71242   0.23884   0.49214   0.00000  Uiso   1.00
H161   H     0.65684   0.25154   0.45309   0.00000  Uiso   1.00
H162   H     0.74062   0.21269   0.54033   0.00000  Uiso   1.00
H163   H     0.58096   0.34316   0.39000   0.00000  Uiso   1.00
H164   H     0.47005   0.40342   0.39952   0.00000  Uiso   1.00
H165   H     0.44353   0.39374   0.43884   0.00000  Uiso   1.00
H166   H     0.63521   0.32062   0.42513   0.00000  Uiso   1.00
H167   H     0.50956   0.29732   0.47257   0.00000  Uiso   1.00
H168   H     0.56413   0.27601   0.50807   0.00000  Uiso   1.00
H169   H     0.48526   0.35233   0.45997   0.00000  Uiso   1.00
C170   C     0.67626   0.29935   0.54990   0.00000  Uiso   1.00
C171   C     0.73250   0.26497   0.56446   0.00000  Uiso   1.00
C172   C     0.75439   0.21087   0.59842   0.00000  Uiso   1.00
C173   C     0.63691   0.28869   0.49269   0.00000  Uiso   1.00
C174   C     0.70118   0.27452   0.53813   0.00000  Uiso   1.00
C175   C     0.64440   0.30612   0.52752   0.00000  Uiso   1.00
C176   C     0.69384   0.25755   0.50276   0.00000  Uiso   1.00
C177   C     0.66209   0.26488   0.48014   0.00000  Uiso   1.00
C178   C     0.57673   0.32769   0.41521   0.00000  Uiso   1.00
C179   C     0.51009   0.34213   0.41081   0.00000  Uiso   1.00
C180   C     0.45632   0.38040   0.41583   0.00000  Uiso   1.00
C181   C     0.60357   0.29698   0.46915   0.00000  Uiso   1.00
C182   C     0.73743   1.02586   0.95749   0.00000  Uiso   1.00
C183   C     0.76854   0.05141   0.90473   0.00000  Uiso   1.00
H184   H     0.72950  -0.00890   0.76018   0.00000  Uiso   1.00
C185   C     0.73724   0.98810   0.90133   0.00000  Uiso   1.00
C186   C     0.72705   0.99204   0.93733   0.00000  Uiso   1.00
N187   N     0.80743   0.05592   0.72297   0.00000  Uiso   1.00
N188   N     0.71067   0.99843   1.01495   0.00000  Uiso   1.00
O189   O     0.78236  -0.00379   0.71100   0.00000  Uiso   1.00
O190   O     0.73589   0.05968   0.01302   0.00000  Uiso   1.00
H191   H     0.78950   0.04578   0.66598   0.00000  Uiso   1.00
H192   H     0.76963   0.08334   0.68772   0.00000  Uiso   1.00
H193   H     0.71377   0.99047   0.82458   0.00000  Uiso   1.00
H194   H     0.84245   0.03702   0.79458   0.00000  Uiso   1.00
H195   H     0.82707   0.03634   0.85955   0.00000  Uiso   1.00
H196   H     0.81794   0.07622   0.74313   0.00000  Uiso   1.00
H197   H     0.76621   0.08222   0.95477   0.00000  Uiso   1.00
H198   H     0.75676   0.98922   0.05264   0.00000  Uiso   1.00
H199   H     0.74791   0.95626   0.01409   0.00000  Uiso   1.00
H200   H     0.78414   0.07487   0.89231   0.00000  Uiso   1.00
H201   H     0.71117   0.96836   0.94906   0.00000  Uiso   1.00
H202   H     0.72893   0.96179   0.88653   0.00000  Uiso   1.00
H203   H     0.68337   0.98837   1.00505   0.00000  Uiso   1.00
C204   C     0.75124  -0.00012   0.78186   0.00000  Uiso   1.00
C205   C     0.79335   0.02090   0.73393   0.00000  Uiso   1.00
C206   C     0.79590   0.06954   0.68620   0.00000  Uiso   1.00
C207   C     0.76916   0.01376   0.84680   0.00000  Uiso   1.00
C208   C     0.78705   0.01427   0.77293   0.00000  Uiso   1.00
C209   C     0.74226  -0.00028   0.81856   0.00000  Uiso   1.00
C210   C     0.81453   0.02647   0.80119   0.00000  Uiso   1.00
C211   C     0.80567   0.02620   0.83801   0.00000  Uiso   1.00
C212   C     0.75797   0.05562   0.94050   0.00000  Uiso   1.00
C213   C     0.72794   1.02982   0.99624   0.00000  Uiso   1.00
C214   C     0.73449   0.97275   0.03450   0.00000  Uiso   1.00
C215   C     0.75849   0.01757   0.88492   0.00000  Uiso   1.00
C216   C     0.75771   0.94049   0.28857   0.00000  Uiso   1.00
C217   C     0.79010   0.95959   0.34835   0.00000  Uiso   1.00
H218   H     0.72042   0.03372   0.45754   0.00000  Uiso   1.00
C219   C     0.73819   0.99274   0.32370   0.00000  Uiso   1.00
C220   C     0.73389   0.96921   0.29220   0.00000  Uiso   1.00
N221   N     0.81825   0.08083   0.50958   0.00000  Uiso   1.00
N222   N     0.73707   0.92324   0.22224   0.00000  Uiso   1.00
O223   O     0.76379   0.04686   0.51778   0.00000  Uiso   1.00
O224   O     0.76703   0.88397   0.25968   0.00000  Uiso   1.00
H225   H     0.82078   0.05132   0.56103   0.00000  Uiso   1.00
H226   H     0.86444   0.06307   0.54194   0.00000  Uiso   1.00
H227   H     0.71191   0.00299   0.39652   0.00000  Uiso   1.00
H228   H     0.83946   0.05352   0.44672   0.00000  Uiso   1.00
H229   H     0.83063   1.02428   0.38551   0.00000  Uiso   1.00
H230   H     0.83338   0.09775   0.49135   0.00000  Uiso   1.00
H231   H     0.80475   0.91444   0.31561   0.00000  Uiso   1.00
H232   H     0.73909   0.86987   0.19605   0.00000  Uiso   1.00
H233   H     0.76992   0.90797   0.18012   0.00000  Uiso   1.00
H234   H     0.81156   0.95493   0.37010   0.00000  Uiso   1.00
H235   H     0.71144   0.97320   0.27136   0.00000  Uiso   1.00
H236   H     0.71959   1.01464   0.32591   0.00000  Uiso   1.00
H237   H     0.72737   0.94975   0.21826   0.00000  Uiso   1.00
C238   C     0.74446   0.03294   0.44158   0.00000  Uiso   1.00
C239   C     0.78644   0.05895   0.49632   0.00000  Uiso   1.00
C240   C     0.83698   0.07365   0.54596   0.00000  Uiso   1.00
C241   C     0.77057   0.01155   0.38628   0.00000  Uiso   1.00
C242   C     0.78040   0.04709   0.45673   0.00000  Uiso   1.00
C243   C     0.73958   0.01546   0.40665   0.00000  Uiso   1.00
C244   C     0.81115   0.04443   0.43556   0.00000  Uiso   1.00
C245   C     0.80627   0.02699   0.40068   0.00000  Uiso   1.00
C246   C     0.78583   0.93613   0.31714   0.00000  Uiso   1.00
C247   C     0.75380   0.91420   0.25612   0.00000  Uiso   1.00
C248   C     0.74148   0.90043   0.18938   0.00000  Uiso   1.00
C249   C     0.76638   0.98809   0.35201   0.00000  Uiso   1.00
C250   C     0.20221   0.50865   0.70940   0.00000  Uiso   1.00
C251   C     0.20137   0.50659   0.64198   0.00000  Uiso   1.00
H252   H     0.34007   0.52773   0.57118   0.00000  Uiso   1.00
C253   C     0.26052   0.50947   0.67934   0.00000  Uiso   1.00
C254   C     0.24160   0.51023   0.71157   0.00000  Uiso   1.00
N255   N     0.32251   0.43031   0.51103   0.00000  Uiso   1.00
N256   N     0.19750   0.51568   0.77771   0.00000  Uiso   1.00
O257   O     0.35255   0.48859   0.51627   0.00000  Uiso   1.00
O258   O     0.14779   0.49379   0.73947   0.00000  Uiso   1.00
H259   H     0.38122   0.42894   0.50770   0.00000  Uiso   1.00
H260   H     0.35495   0.38413   0.51015   0.00000  Uiso   1.00
H261   H     0.30429   0.54469   0.62210   0.00000  Uiso   1.00
H262   H     0.25466   0.43606   0.54004   0.00000  Uiso   1.00
H263   H     0.22026   0.45248   0.59129   0.00000  Uiso   1.00
H264   H     0.29889   0.41188   0.51504   0.00000  Uiso   1.00
H265   H     0.15224   0.50670   0.67129   0.00000  Uiso   1.00
H266   H     0.15165   0.49122   0.80635   0.00000  Uiso   1.00
H267   H     0.19623   0.49688   0.83296   0.00000  Uiso   1.00
H268   H     0.18535   0.50491   0.61524   0.00000  Uiso   1.00
H269   H     0.25801   0.51027   0.73794   0.00000  Uiso   1.00
H270   H     0.29072   0.50911   0.68183   0.00000  Uiso   1.00
H271   H     0.22471   0.52900   0.78087   0.00000  Uiso   1.00
C272   C     0.31373   0.51125   0.57491   0.00000  Uiso   1.00
C273   C     0.32639   0.46675   0.52476   0.00000  Uiso   1.00
C274   C     0.35415   0.41271   0.49801   0.00000  Uiso   1.00
C275   C     0.25986   0.49954   0.61088   0.00000  Uiso   1.00
C276   C     0.30120   0.47966   0.55191   0.00000  Uiso   1.00
C277   C     0.29343   0.52092   0.60422   0.00000  Uiso   1.00
C278   C     0.26640   0.45966   0.55751   0.00000  Uiso   1.00
C279   C     0.24610   0.46947   0.58673   0.00000  Uiso   1.00
C280   C     0.18249   0.50761   0.67410   0.00000  Uiso   1.00
C281   C     0.18094   0.50555   0.74304   0.00000  Uiso   1.00
C282   C     0.17800   0.51020   0.81156   0.00000  Uiso   1.00
C283   C     0.24044   0.50654   0.64434   0.00000  Uiso   1.00
C284   C     0.24590   0.42900   0.21263   0.00000  Uiso   1.00
C285   C     0.21106   0.44738   0.15602   0.00000  Uiso   1.00
H286   H     0.27914   0.51153   0.03516   0.00000  Uiso   1.00
C287   C     0.27154   0.48053   0.17489   0.00000  Uiso   1.00
C288   C     0.27460   0.45759   0.20628   0.00000  Uiso   1.00
N289   N     0.17958   0.53677   0.98758   0.00000  Uiso   1.00
N290   N     0.27103   0.41075   0.27651   0.00000  Uiso   1.00
O291   O     0.24191   0.54561   0.98472   0.00000  Uiso   1.00
O292   O     0.22843   0.37256   0.24194   0.00000  Uiso   1.00
H293   H     0.19517   0.52264   0.93385   0.00000  Uiso   1.00
H294   H     0.14919   0.50493   0.94395   0.00000  Uiso   1.00
H295   H     0.28961   0.48508   0.09674   0.00000  Uiso   1.00
H296   H     0.17192   0.54331   0.06353   0.00000  Uiso   1.00
H297   H     0.18238   0.51590   0.12451   0.00000  Uiso   1.00
H298   H     0.15703   0.53315   1.00399   0.00000  Uiso   1.00
H299   H     0.19171   0.40244   0.19038   0.00000  Uiso   1.00
H300   H     0.26603   0.35564   0.29899   0.00000  Uiso   1.00
H301   H     0.24272   0.39003   0.32239   0.00000  Uiso   1.00
H302   H     0.18654   0.44240   0.13656   0.00000  Uiso   1.00
H303   H     0.29982   0.46178   0.22477   0.00000  Uiso   1.00
H304   H     0.29402   0.50212   0.17040   0.00000  Uiso   1.00
H305   H     0.28648   0.43711   0.28015   0.00000  Uiso   1.00
C306   C     0.25796   0.51338   0.05452   0.00000  Uiso   1.00
C307   C     0.21572   0.53824   1.00373   0.00000  Uiso   1.00
C308   C     0.17028   0.52992   0.94769   0.00000  Uiso   1.00
C309   C     0.23653   0.49794   0.11510   0.00000  Uiso   1.00
C310   C     0.22392   0.52822   0.04343   0.00000  Uiso   1.00
C311   C     0.26418   0.49839   0.08991   0.00000  Uiso   1.00
C312   C     0.19760   0.53043   0.06990   0.00000  Uiso   1.00
C313   C     0.20376   0.51519   0.10520   0.00000  Uiso   1.00
C314   C     0.21422   0.42433   0.18689   0.00000  Uiso   1.00
C315   C     0.24827   0.40253   0.24446   0.00000  Uiso   1.00
C316   C     0.26836   0.38560   0.30850   0.00000  Uiso   1.00
C317   C     0.23969   0.47561   0.14953   0.00000  Uiso   1.00
C318   C     0.02263   0.21161   0.50580   0.00000  Uiso   1.00
C319   C     0.06304   0.25545   0.47175   0.00000  Uiso   1.00
H320   H     0.21370   0.28807   0.53364   0.00000  Uiso   1.00
C321   C     0.09007   0.20884   0.51139   0.00000  Uiso   1.00
C322   C     0.05428   0.19465   0.52015   0.00000  Uiso   1.00
N323   N     0.26385   0.29190   0.44009   0.00000  Uiso   1.00
N324   N     0.98243   0.19613   0.55725   0.00000  Uiso   1.00
O325   O     0.26361   0.32269   0.49437   0.00000  Uiso   1.00
O326   O     0.95723   0.20564   0.49976   0.00000  Uiso   1.00
H327   H     0.31804   0.29921   0.46990   0.00000  Uiso   1.00
H328   H     0.30986   0.26023   0.43820   0.00000  Uiso   1.00
H329   H     0.15053   0.26049   0.54145   0.00000  Uiso   1.00
H330   H     0.18769   0.28915   0.41508   0.00000  Uiso   1.00
H331   H     0.12450   0.26099   0.42314   0.00000  Uiso   1.00
H332   H     0.24840   0.27725   0.41796   0.00000  Uiso   1.00
H333   H     0.00337   0.25495   0.46931   0.00000  Uiso   1.00
H334   H     0.93847   0.23218   0.55853   0.00000  Uiso   1.00
H335   H     0.97004   0.23275   0.59930   0.00000  Uiso   1.00
H336   H     0.06591   0.27977   0.45389   0.00000  Uiso   1.00
H337   H     0.05158   0.17102   0.53875   0.00000  Uiso   1.00
H338   H     0.11420   0.19592   0.52347   0.00000  Uiso   1.00
H339   H     1.00542   0.18788   0.57357   0.00000  Uiso   1.00
C340   C     0.19453   0.28274   0.50920   0.00000  Uiso   1.00
C341   C     0.24598   0.30346   0.46963   0.00000  Uiso   1.00
C342   C     0.30444   0.29015   0.44223   0.00000  Uiso   1.00
C343   C     0.13279   0.25803   0.48286   0.00000  Uiso   1.00
C344   C     0.20616   0.29038   0.47367   0.00000  Uiso   1.00
C345   C     0.15841   0.26648   0.51372   0.00000  Uiso   1.00
C346   C     0.18013   0.28293   0.44281   0.00000  Uiso   1.00
C347   C     0.14374   0.26705   0.44741   0.00000  Uiso   1.00
C348   C     0.02729   0.24118   0.48047   0.00000  Uiso   1.00
C349   C     0.98543   0.20279   0.52026   0.00000  Uiso   1.00
C350   C     0.95483   0.21395   0.57725   0.00000  Uiso   1.00
C351   C     0.09479   0.24012   0.48809   0.00000  Uiso   1.00
C352   C     0.02392   0.78600   0.82415   0.00000  Uiso   1.00
C353   C     0.01529   0.85126   0.80835   0.00000  Uiso   1.00
H354   H     0.92568   0.87216   0.66604   0.00000  Uiso   1.00
C355   C     0.97992   0.80037   0.77271   0.00000  Uiso   1.00
C356   C    -0.00299   0.77403   0.79524   0.00000  Uiso   1.00
N357   N     0.92366   0.98095   0.67858   0.00000  Uiso   1.00
N358   N     0.05559   0.72663   0.82857   0.00000  Uiso   1.00
O359   O     0.93747   0.93889   0.63648   0.00000  Uiso   1.00
O360   O     0.06240   0.76895   0.87515   0.00000  Uiso   1.00
H361   H     0.90286  -0.00755   0.62314   0.00000  Uiso   1.00
H362   H     0.86974  -0.00753   0.65746   0.00000  Uiso   1.00
H363   H     0.94681   0.82705   0.70973   0.00000  Uiso   1.00
H364   H     0.97815   0.96364   0.73591   0.00000  Uiso   1.00
H365   H    -0.00139   0.91955   0.78133   0.00000  Uiso   1.00
H366   H     0.92428  -0.01134   0.70650   0.00000  Uiso   1.00
H367   H     0.05232   0.83523   0.85339   0.00000  Uiso   1.00
H368   H     0.11382   0.74090   0.84425   0.00000  Uiso   1.00
H369   H     0.10281   0.71863   0.80020   0.00000  Uiso   1.00
H370   H     0.02408   0.88051   0.81482   0.00000  Uiso   1.00
H371   H    -0.01085   0.74430   0.78961   0.00000  Uiso   1.00
H372   H     0.95937   0.78899   0.75125   0.00000  Uiso   1.00
H373   H     0.03783   0.71372   0.80700   0.00000  Uiso   1.00
C374   C     0.94187   0.88241   0.69125   0.00000  Uiso   1.00
C375   C     0.93745   0.94787   0.66906   0.00000  Uiso   1.00
C376   C     0.89955   0.00061   0.65221   0.00000  Uiso   1.00
C377   C     0.97490   0.86820   0.75063   0.00000  Uiso   1.00
C378   C     0.95025   0.92126   0.69757   0.00000  Uiso   1.00
C379   C     0.95392   0.85635   0.71714   0.00000  Uiso   1.00
C380   C     0.97070   0.93374   0.73058   0.00000  Uiso   1.00
C381   C    -0.01718   0.90773   0.75673   0.00000  Uiso   1.00
C382   C     0.03178   0.82491   0.83117   0.00000  Uiso   1.00
C383   C     0.04713   0.75937   0.84478   0.00000  Uiso   1.00
C384   C     0.09469   0.71842   0.82918   0.00000  Uiso   1.00
C385   C    -0.01027   0.83975   0.77773   0.00000  Uiso   1.00
C386   C     0.93716   0.29440   0.73460   0.00000  Uiso   1.00
C387   C     0.93760   0.36304   0.73986   0.00000  Uiso   1.00
H388   H     0.07595   0.45483   0.78898   0.00000  Uiso   1.00
C389   C     0.99152   0.33289   0.76432   0.00000  Uiso   1.00
C390   C     0.97369   0.29767   0.75248   0.00000  Uiso   1.00
N391   N     0.02424   0.53838   0.82722   0.00000  Uiso   1.00
N392   N     0.92888   0.22303   0.73400   0.00000  Uiso   1.00
O393   O     0.07244   0.50483   0.84482   0.00000  Uiso   1.00
O394   O     0.88382   0.25681   0.70977   0.00000  Uiso   1.00
H395   H     0.03013   0.56270   0.88096   0.00000  Uiso   1.00
H396   H     0.01854   0.59435   0.84414   0.00000  Uiso   1.00
H397   H     0.04717   0.39527   0.75979   0.00000  Uiso   1.00
H398   H     0.96843   0.47849   0.82287   0.00000  Uiso   1.00
H399   H     0.93962   0.41930   0.79405   0.00000  Uiso   1.00
H400   H    -0.00124   0.53891   0.81125   0.00000  Uiso   1.00
H401   H     0.89191   0.32704   0.71389   0.00000  Uiso   1.00
H402   H     0.87439   0.19248   0.73457   0.00000  Uiso   1.00
H403   H     0.91126   0.17312   0.76138   0.00000  Uiso   1.00
H404   H     0.92302   0.38803   0.73479   0.00000  Uiso   1.00
H405   H     0.98884   0.27345   0.75845   0.00000  Uiso   1.00
H406   H     0.01903   0.33400   0.77909   0.00000  Uiso   1.00
H407   H     0.95682   0.22165   0.74354   0.00000  Uiso   1.00
C408   C     0.04613   0.44726   0.78994   0.00000  Uiso   1.00
C409   C     0.04198   0.50583   0.82761   0.00000  Uiso   1.00
C410   C     0.03559   0.57084   0.85219   0.00000  Uiso   1.00
C411   C     0.99102   0.40279   0.77437   0.00000  Uiso   1.00
C412   C     0.02426   0.47133   0.80769   0.00000  Uiso   1.00
C413   C     0.02968   0.41331   0.77335   0.00000  Uiso   1.00
C414   C     0.98566   0.46101   0.80836   0.00000  Uiso   1.00
C415   C     0.96923   0.42713   0.79192   0.00000  Uiso   1.00
C416   C     0.91984   0.32790   0.72776   0.00000  Uiso   1.00
C417   C     0.91532   0.25700   0.72510   0.00000  Uiso   1.00
C418   C     0.90450   0.18750   0.73491   0.00000  Uiso   1.00
C419   C     0.97345   0.36589   0.75876   0.00000  Uiso   1.00
C420   C     0.96444   0.72160   0.99731   0.00000  Uiso   1.00
C421   C     0.90662   0.71476   0.02851   0.00000  Uiso   1.00
H422   H     0.76984   0.76328   0.97529   0.00000  Uiso   1.00
C423   C     0.91576   0.76364   0.98301   0.00000  Uiso   1.00
C424   C     0.95100   0.75206   0.97742   0.00000  Uiso   1.00
N425   N     0.73688   0.78748   0.07666   0.00000  Uiso   1.00
N426   N     0.02314   0.72158   0.96209   0.00000  Uiso   1.00
O427   O     0.72385   0.78865   0.01516   0.00000  Uiso   1.00
O428   O     1.01777   0.69264   0.01820   0.00000  Uiso   1.00
H429   H     0.67967   0.76741   0.06101   0.00000  Uiso   1.00
H430   H     0.69653   0.75806   0.10733   0.00000  Uiso   1.00
H431   H     0.83142   0.74630   0.96146   0.00000  Uiso   1.00
H432   H     0.81425   0.79356   0.08734   0.00000  Uiso   1.00
H433   H     0.87477   0.77464   0.07349   0.00000  Uiso   1.00
H434   H     0.75679   0.78862   0.09928   0.00000  Uiso   1.00
H435   H     0.95059   0.67877   0.03792   0.00000  Uiso   1.00
H436   H     0.07577   0.73141   0.99337   0.00000  Uiso   1.00
H437   H     0.07367   0.75161   0.94830   0.00000  Uiso   1.00
H438   H     0.88962   0.70012   0.04835   0.00000  Uiso   1.00
H439   H     0.96803   0.76777   0.95834   0.00000  Uiso   1.00
H440   H     0.90619   0.78753   0.96791   0.00000  Uiso   1.00
H441   H     1.00834   0.72635   0.93679   0.00000  Uiso   1.00
C442   C     0.79254   0.76665   0.99694   0.00000  Uiso   1.00
C443   C     0.74738   0.78599   0.04102   0.00000  Uiso   1.00
C444   C     0.69773   0.77970   0.08532   0.00000  Uiso   1.00
C445   C     0.85740   0.75881   0.01657   0.00000  Uiso   1.00
C446   C     0.78627   0.77918   0.03272   0.00000  Uiso   1.00
C447   C     0.82772   0.75680   0.98891   0.00000  Uiso   1.00
C448   C     0.81686   0.78281   0.05987   0.00000  Uiso   1.00
C449   C     0.85189   0.77232   0.05194   0.00000  Uiso   1.00
C450   C     0.94151   0.70273   0.02254   0.00000  Uiso   1.00
C451   C     1.00291   0.71079   0.99367   0.00000  Uiso   1.00
C452   C     0.06418   0.72635   0.96416   0.00000  Uiso   1.00
C453   C     0.89368   0.74549   0.00905   0.00000  Uiso   1.00
C454   C     0.47158   0.52505   0.30532   0.00000  Uiso   1.00
C455   C     0.52172   0.57055   0.28786   0.00000  Uiso   1.00
H456   H     0.48000   0.67372   0.17112   0.00000  Uiso   1.00
C457   C     0.45708   0.58173   0.27243   0.00000  Uiso   1.00
C458   C     0.44526   0.54815   0.28960   0.00000  Uiso   1.00
N459   N     0.54919   0.76109   0.21174   0.00000  Uiso   1.00
N460   N     0.43163   0.46447   0.29723   0.00000  Uiso   1.00
O461   O     0.52476   0.73269   0.15853   0.00000  Uiso   1.00
O462   O     0.47859   0.47233   0.34229   0.00000  Uiso   1.00
H463   H     0.51562   0.79880   0.18256   0.00000  Uiso   1.00
H464   H     0.54105   0.81770   0.22389   0.00000  Uiso   1.00
H465   H     0.46377   0.61522   0.20364   0.00000  Uiso   1.00
H466   H     0.57525   0.70034   0.25052   0.00000  Uiso   1.00
H467   H     0.55687   0.64417   0.28526   0.00000  Uiso   1.00
H468   H     0.55983   0.75863   0.23921   0.00000  Uiso   1.00
H469   H     0.53079   0.52044   0.31809   0.00000  Uiso   1.00
H470   H     0.45956   0.41441   0.30212   0.00000  Uiso   1.00
H471   H     0.42458   0.41493   0.26437   0.00000  Uiso   1.00
H472   H     0.55149   0.57780   0.28670   0.00000  Uiso   1.00
H473   H     0.41554   0.54003   0.28987   0.00000  Uiso   1.00
H474   H     0.43602   0.59887   0.26058   0.00000  Uiso   1.00
H475   H     0.41397   0.47698   0.27765   0.00000  Uiso   1.00
C476   C     0.49732   0.66719   0.19568   0.00000  Uiso   1.00
C477   C     0.53473   0.72962   0.19131   0.00000  Uiso   1.00
C478   C     0.54292   0.79917   0.19946   0.00000  Uiso   1.00
C479   C     0.50785   0.62602   0.24814   0.00000  Uiso   1.00
C480   C     0.52813   0.69234   0.20901   0.00000  Uiso   1.00
C481   C     0.48748   0.63421   0.21483   0.00000  Uiso   1.00
C482   C     0.55028   0.68258   0.24057   0.00000  Uiso   1.00
C483   C     0.54004   0.64998   0.26018   0.00000  Uiso   1.00
C484   C     0.50985   0.53748   0.30582   0.00000  Uiso   1.00
C485   C     0.46022   0.48615   0.31695   0.00000  Uiso   1.00
C486   C     0.43139   0.42350   0.29389   0.00000  Uiso   1.00
C487   C     0.49547   0.59253   0.26998   0.00000  Uiso   1.00
loop_
_geom_bond_atom_site_label_1
_geom_bond_atom_site_label_2
_geom_bond_distance
_geom_bond_site_symmetry_2
_ccdc_geom_bond_type
C0     O4      1.264   .     A
C0     O5      1.275   .     A
C0     C282    1.494   .     S
Ho1    O4      2.200   .     S
Ho1    O5      2.209   .     S
Ho1    O6      2.267   .     S
Ho1    O7      2.203   .     S
Ho1    O10     2.279   .     S
Ho1    O15     2.166   .     S
Ho1    O17     2.188   .     S
C2     O12     1.266   .     A
C2     O13     1.277   .     A
C2     C452    1.499   .     S
Ho3    O7      2.175   .     S
Ho3    O11     2.209   .     S
Ho3    O12     2.199   .     S
Ho3    O13     2.210   .     S
Ho3    O14     2.280   .     S
Ho3    O15     2.196   .     S
Ho3    O16     2.304   .     S
O6     C8      1.189   .     D
O7     C8      1.337   .     S
C8     C410    1.499   .     S
C9     O14     1.191   .     D
C9     O15     1.327   .     S
C9     C112    1.489   .     S
O10    C19     1.313   .     A
O11    C19     1.299   .     A
O16    C18     1.316   .     A
O17    C18     1.295   .     A
C18    C384    1.498   .     S
C19    C308    1.504   .     S
C20    O24     1.281   .     A
C20    O25     1.280   .     A
C20    C478    1.491   .     S
Ho21   O24     2.178   .     S
Ho21   O25     2.181   .     S
Ho21   O26     2.200   .     S
Ho21   O27     2.152   .     S
Ho21   O30     2.193   .     S
Ho21   O35     2.173   .     S
Ho21   O37     2.204   .     S
C22    O32     1.284   .     A
C22    O33     1.278   .     A
C22    C214    1.490   .     S
Ho23   O27     2.135   .     S
Ho23   O31     2.201   .     S
Ho23   O32     2.186   .     S
Ho23   O33     2.166   .     S
Ho23   O34     2.184   .     S
Ho23   O35     2.162   .     S
Ho23   O36     2.220   .     S
O26    C28     1.229   .     D
O27    C28     1.386   .     S
C28    C104    1.498   .     S
C29    O34     1.233   .     D
C29    O35     1.405   .     S
C29    C248    1.498   .     S
O30    C39     1.291   .     A
O31    C39     1.294   .     A
O36    C38     1.310   .     A
O37    C38     1.309   .     A
C38    C444    1.502   .     S
C39    C146    1.494   .     S
C40    O44     1.286   .     A
C40    O45     1.278   .     A
C40    C172    1.485   .     S
Ho41   O44     2.184   .     S
Ho41   O45     2.162   .     S
Ho41   O46     2.218   .     S
Ho41   O47     2.125   .     S
Ho41   O50     2.187   .     S
Ho41   O55     2.174   .     S
Ho41   O57     2.162   .     S
C42    O52     1.283   .     A
C42    O53     1.276   .     A
C42    C376    1.496   .     S
Ho43   O47     2.153   .     S
Ho43   O51     2.231   .     S
Ho43   O52     2.185   .     S
Ho43   O53     2.190   .     S
Ho43   O54     2.199   .     S
Ho43   O55     2.146   .     S
Ho43   O56     2.262   .     S
O46    C48     1.236   .     D
O47    C48     1.392   .     S
C48    C240    1.493   .     S
C49    O54     1.236   .     D
C49    O55     1.398   .     S
C49    C418    1.499   .     S
O50    C59     1.300   .     A
O51    C59     1.306   .     A
O56    C58     1.307   .     A
O57    C58     1.284   .     A
C58    C206    1.490   .     S
C59    C350    1.496   .     S
C60    O64     1.287   .     A
C60    O65     1.291   .     A
C60    C138    1.489   .     S
Ho61   O64     2.175   .     S
Ho61   O65     2.171   .     S
Ho61   O66     2.288   .     S
Ho61   O67     2.287   .     S
Ho61   O70     2.219   .     S
Ho61   O75     2.218   .     S
Ho61   O77     2.206   .     S
C62    O72     1.274   .     A
C62    O73     1.288   .     A
C62    C274    1.492   .     S
Ho63   O67     2.128   .     S
Ho63   O71     2.210   .     S
Ho63   O72     2.173   .     S
Ho63   O73     2.195   .     S
Ho63   O74     2.189   .     S
Ho63   O75     2.089   .     S
Ho63   O76     2.247   .     S
O66    C68     1.174   .     D
O67    C68     1.316   .     S
C68    C180    1.493   .     S
C69    O74     1.237   .     D
C69    O75     1.406   .     S
C69    C316    1.500   .     S
O70    C79     1.297   .     A
O71    C79     1.295   .     A
O76    C78     1.308   .     A
O77    C78     1.296   .     A
C78    C342    1.494   .     S
C79    C486    1.491   .     S
C80    C84     1.406   .     A
C80    C110    1.404   .     A
C80    C111    1.474   .     S
C81    H98     1.084   .     S
C81    C110    1.393   .     A
C81    C113    1.403   .     A
H82    C102    1.082   .     S
C83    C84     1.397   .     A
C83    H100    1.085   .     S
C83    C113    1.404   .     A
C84    H99     1.083   .     S
N85    H94     1.041   .     S
N85    C103    1.373   .     S
N85    C104    1.463   .     S
N86    H101    1.045   .     S
N86    C111    1.369   .     S
N86    C112    1.460   .     S
O87    C103    1.221   .     D
O88    C111    1.221   .     D
H89    C104    1.110   .     S
H90    C104    1.112   .     S
H91    C107    1.084   .     S
H92    C108    1.078   .     S
H93    C109    1.083   .     S
H95    C110    1.084   .     S
H96    C112    1.112   .     S
H97    C112    1.111   .     S
C102   C106    1.410   .     A
C102   C107    1.395   .     A
C103   C106    1.489   .     S
C105   C109    1.399   .     A
C105   C113    1.472   .     S
C105   C107    1.402   1_556 A
C106   C108    1.410   1_554 A
C107   C105    1.402   1_554 A
C108   C109    1.392   .     A
C108   C106    1.410   1_556 A
C114   C118    1.397   .     A
C114   C144    1.399   .     A
C114   C145    1.472   1_545 S
C115   H132    1.077   .     S
C115   C144    1.393   .     A
C115   C147    1.414   .     A
H116   C136    1.084   .     S
C117   C118    1.399   .     A
C117   H134    1.077   .     S
C117   C147    1.417   .     A
C118   H133    1.083   .     S
N119   H128    1.042   .     S
N119   C137    1.375   .     S
N119   C138    1.459   .     S
N120   H135    1.045   .     S
N120   C145    1.371   .     S
N120   C146    1.459   .     S
O121   C137    1.221   .     D
O122   C145    1.221   .     D
H123   C138    1.112   .     S
H124   C138    1.112   .     S
H125   C141    1.078   .     S
H126   C142    1.081   .     S
H127   C143    1.076   .     S
H129   C144    1.084   .     S
H130   C146    1.112   .     S
H131   C146    1.113   .     S
C136   C140    1.403   .     A
C136   C141    1.398   .     A
C137   C140    1.485   .     S
C139   C141    1.414   .     A
C139   C143    1.414   .     A
C139   C147    1.510   .     S
C140   C142    1.401   .     A
C142   C143    1.394   .     A
C145   C114    1.472   1_565 S
C148   C152    1.406   .     A
C148   C178    1.406   .     A
C148   C179    1.479   .     S
C149   H166    1.084   .     S
C149   C178    1.395   .     A
C149   C181    1.400   .     A
H150   C170    1.082   .     S
C151   C152    1.395   .     A
C151   H168    1.084   .     S
C151   C181    1.403   .     A
C152   H167    1.082   .     S
N153   H162    1.043   .     S
N153   C171    1.372   .     S
N153   C172    1.459   .     S
N154   H169    1.045   .     S
N154   C179    1.373   .     S
N154   C180    1.461   .     S
O155   C171    1.221   .     D
O156   C179    1.221   .     D
H157   C172    1.114   .     S
H158   C172    1.111   .     S
H159   C175    1.082   .     S
H160   C176    1.079   .     S
H161   C177    1.081   .     S
H163   C178    1.082   .     S
H164   C180    1.112   .     S
H165   C180    1.111   .     S
C170   C174    1.407   .     A
C170   C175    1.391   .     A
C171   C174    1.483   .     S
C173   C175    1.398   .     A
C173   C177    1.400   .     A
C173   C181    1.469   .     S
C174   C176    1.408   .     A
C176   C177    1.398   .     A
C182   C186    1.407   .     A
C182   C213    1.481   .     S
C182   C212    1.405   1_565 A
C183   H200    1.080   .     S
C183   C212    1.391   .     A
C183   C215    1.400   .     A
H184   C204    1.085   .     S
C185   C186    1.393   .     A
C185   H202    1.081   .     S
C185   C215    1.400   1_565 A
C186   H201    1.080   .     S
N187   H196    1.046   .     S
N187   C205    1.371   .     S
N187   C206    1.462   .     S
N188   H203    1.046   .     S
N188   C213    1.426   .     S
N188   C214    1.460   1_556 S
O189   C205    1.221   .     D
O190   C213    1.219   1_544 D
H191   C206    1.110   .     S
H192   C206    1.112   .     S
H193   C209    1.085   1_565 S
H194   C210    1.083   .     S
H195   C211    1.085   .     S
H197   C212    1.080   .     S
H198   C214    1.112   .     S
H199   C214    1.111   .     S
C204   C208    1.403   .     A
C204   C209    1.393   .     A
C205   C208    1.465   .     S
C207   C209    1.404   .     A
C207   C211    1.407   .     A
C207   C215    1.472   .     S
C208   C210    1.401   .     A
C209   H193    1.085   1_545 S
C210   C211    1.396   .     A
C212   C182    1.405   1_545 A
C213   O190    1.219   1_566 D
C214   N188    1.460   1_554 S
C215   C185    1.400   1_545 A
C216   C220    1.409   .     A
C216   C246    1.408   .     A
C216   C247    1.488   .     S
C217   H234    1.083   .     S
C217   C246    1.391   .     A
C217   C249    1.401   .     A
H218   C238    1.081   .     S
C219   C220    1.402   .     A
C219   H236    1.083   .     S
C219   C249    1.405   .     A
C220   H235    1.080   .     S
N221   H230    1.045   .     S
N221   C239    1.371   .     S
N221   C240    1.466   .     S
N222   H237    1.044   .     S
N222   C247    1.376   .     S
N222   C248    1.466   .     S
O223   C239    1.221   .     D
O224   C247    1.222   .     D
H225   C240    1.111   .     S
H226   C240    1.112   .     S
H227   C243    1.084   .     S
H228   C244    1.083   .     S
H229   C245    1.084   1_565 S
H231   C246    1.082   .     S
H232   C248    1.112   .     S
H233   C248    1.111   .     S
C238   C242    1.408   .     A
C238   C243    1.398   .     A
C239   C242    1.486   .     S
C241   C243    1.404   .     A
C241   C245    1.405   .     A
C241   C249    1.482   1_545 S
C242   C244    1.407   .     A
C244   C245    1.396   .     A
C245   H229    1.084   1_545 S
C249   C241    1.482   1_565 S
C250   C254    1.409   .     A
C250   C280    1.409   .     A
C250   C281    1.490   .     S
C251   H268    1.085   .     S
C251   C280    1.396   .     A
C251   C283    1.402   .     A
H252   C272    1.083   .     S
C253   C254    1.400   .     A
C253   H270    1.085   .     S
C253   C283    1.405   .     A
C254   H269    1.082   .     S
N255   H264    1.042   .     S
N255   C273    1.376   .     S
N255   C274    1.462   .     S
N256   H271    1.043   .     S
N256   C281    1.376   .     S
N256   C282    1.466   .     S
O257   C273    1.221   .     D
O258   C281    1.221   .     D
H259   C274    1.112   .     S
H260   C274    1.112   .     S
H261   C277    1.084   .     S
H262   C278    1.080   .     S
H263   C279    1.083   .     S
H265   C280    1.082   .     S
H266   C282    1.111   .     S
H267   C282    1.113   .     S
C272   C276    1.411   .     A
C272   C277    1.397   .     A
C273   C276    1.491   .     S
C275   C277    1.402   .     A
C275   C279    1.404   .     A
C275   C283    1.480   .     S
C276   C278    1.408   .     A
C278   C279    1.396   .     A
C284   C288    1.410   .     A
C284   C314    1.409   .     A
C284   C315    1.495   .     S
C285   H302    1.083   .     S
C285   C314    1.394   .     A
C285   C317    1.401   .     A
H286   C306    1.083   .     S
C287   C288    1.406   .     A
C287   H304    1.082   .     S
C287   C317    1.406   .     A
C288   H303    1.081   .     S
N289   H298    1.043   .     S
N289   C307    1.378   .     S
N289   C308    1.470   .     S
N290   H305    1.044   .     S
N290   C315    1.378   .     S
N290   C316    1.471   .     S
O291   C307    1.221   .     D
O292   C315    1.222   .     D
H293   C308    1.113   .     S
H294   C308    1.111   .     S
H295   C311    1.083   .     S
H296   C312    1.080   .     S
H297   C313    1.083   .     S
H299   C314    1.083   .     S
H300   C316    1.112   .     S
H301   C316    1.110   .     S
C306   C310    1.411   .     A
C306   C311    1.401   .     A
C307   C310    1.496   1_556 S
C309   C311    1.403   .     A
C309   C313    1.404   .     A
C309   C317    1.485   .     S
C310   C312    1.409   .     A
C310   C307    1.496   1_554 S
C312   C313    1.401   .     A
C318   C322    1.405   .     A
C318   C348    1.406   .     A
C318   C349    1.483   1_455 S
C319   H336    1.085   .     S
C319   C348    1.397   .     A
C319   C351    1.403   .     A
H320   C340    1.081   .     S
C321   C322    1.398   .     A
C321   H338    1.084   .     S
C321   C351    1.406   .     A
C322   H337    1.082   .     S
N323   H332    1.044   .     S
N323   C341    1.374   .     S
N323   C342    1.464   .     S
N324   H339    1.044   .     S
N324   C349    1.373   .     S
N324   C350    1.466   .     S
O325   C341    1.221   .     D
O326   C349    1.221   .     D
H327   C342    1.111   .     S
H328   C342    1.112   .     S
H329   C345    1.082   .     S
H330   C346    1.080   .     S
H331   C347    1.081   .     S
H333   C348    1.083   .     S
H334   C350    1.114   .     S
H335   C350    1.112   .     S
C340   C344    1.405   .     A
C340   C345    1.392   .     A
C341   C344    1.482   .     S
C343   C345    1.402   .     A
C343   C347    1.403   .     A
C343   C351    1.478   .     S
C344   C346    1.405   .     A
C346   C347    1.398   .     A
C349   C318    1.483   1_655 S
C352   C356    1.402   .     A
C352   C382    1.403   .     A
C352   C383    1.488   .     S
C353   H370    1.077   .     S
C353   C382    1.397   .     A
C353   C385    1.414   .     A
H354   C374    1.084   .     S
C355   H372    1.077   .     S
C355   C356    1.401   1_655 A
C355   C385    1.418   1_655 A
C356   H371    1.082   .     S
C356   C355    1.401   1_455 A
N357   C375    1.374   .     S
N357   H366    1.044   1_565 S
N357   C376    1.465   1_565 S
N358   H373    1.043   .     S
N358   C383    1.373   .     S
N358   C384    1.463   .     S
O359   C375    1.221   .     D
O360   C383    1.221   .     D
H361   C376    1.109   .     S
H362   C376    1.115   .     S
H363   C379    1.076   .     S
H364   C380    1.084   .     S
H365   C381    1.077   .     S
H366   N357    1.044   1_545 S
H367   C382    1.084   .     S
H368   C384    1.113   .     S
H369   C384    1.112   .     S
C374   C378    1.399   .     A
C374   C379    1.396   .     A
C375   C378    1.481   .     S
C376   N357    1.465   1_545 S
C377   C379    1.415   .     A
C377   C381    1.420   1_655 S
C377   C385    1.518   1_655 S
C378   C380    1.399   .     A
C380   C381    1.402   1_655 D
C381   C377    1.420   1_455 S
C381   C380    1.402   1_455 D
C385   C355    1.418   1_455 A
C385   C377    1.518   1_455 S
C386   C390    1.411   .     A
C386   C416    1.412   .     A
C386   C417    1.501   .     S
C387   H404    1.085   .     S
C387   C416    1.399   .     A
C387   C419    1.405   .     A
H388   C408    1.084   .     S
C389   C390    1.399   .     A
C389   C419    1.405   .     A
C389   H406    1.083   1_655 S
C390   H405    1.077   .     S
N391   H400    1.045   .     S
N391   C409    1.376   .     S
N391   C410    1.468   .     S
N392   H407    1.042   .     S
N392   C417    1.377   .     S
N392   C418    1.469   .     S
O393   C409    1.220   .     D
O394   C417    1.220   .     D
H395   C410    1.111   .     S
H396   C410    1.111   .     S
H397   C413    1.084   .     S
H398   C414    1.083   .     S
H399   C415    1.084   .     S
H401   C416    1.084   .     S
H402   C418    1.114   .     S
H403   C418    1.110   .     S
H406   C389    1.083   1_455 S
C408   C412    1.406   .     A
C408   C413    1.402   .     A
C409   C412    1.482   .     S
C411   C415    1.407   .     A
C411   C419    1.488   .     S
C411   C413    1.408   1_655 A
C412   C414    1.404   1_455 A
C413   C411    1.408   1_455 A
C414   C415    1.398   .     A
C414   C412    1.404   1_655 A
C420   C424    1.408   .     A
C420   C451    1.488   .     S
C420   C450    1.410   1_556 A
C421   H438    1.084   .     S
C421   C450    1.398   .     A
C421   C453    1.401   .     A
H422   C442    1.083   .     S
C423   C424    1.401   .     A
C423   H440    1.083   .     S
C423   C453    1.402   1_556 A
C424   H439    1.082   .     S
N425   H434    1.042   .     S
N425   C443    1.377   .     S
N425   C444    1.468   .     S
N426   C452    1.466   .     S
N426   H441    1.045   1_455 S
N426   C451    1.439   1_455 S
O427   C443    1.221   .     D
O428   C451    1.220   1_554 D
H429   C444    1.112   .     S
H430   C444    1.111   .     S
H431   C447    1.083   .     S
H432   C448    1.079   .     S
H433   C449    1.084   .     S
H435   C450    1.083   .     S
H436   C452    1.112   .     S
H437   C452    1.110   .     S
H441   N426    1.045   1_655 S
C442   C447    1.399   .     A
C442   C446    1.411   1_556 A
C443   C446    1.497   .     S
C445   C449    1.402   .     A
C445   C453    1.477   .     S
C445   C447    1.400   1_554 A
C446   C448    1.411   .     A
C446   C442    1.411   1_554 A
C447   C445    1.400   1_556 A
C448   C449    1.400   .     A
C450   C420    1.410   1_554 A
C451   N426    1.439   1_655 S
C451   O428    1.220   1_556 D
C453   C423    1.402   1_554 A
C454   C458    1.403   .     A
C454   C484    1.403   .     A
C454   C485    1.477   .     S
C455   H472    1.081   .     S
C455   C484    1.394   .     A
C455   C487    1.405   .     A
H456   C476    1.084   .     S
C457   C458    1.395   .     A
C457   H474    1.082   .     S
C457   C487    1.407   .     A
C458   H473    1.081   .     S
N459   H468    1.044   .     S
N459   C477    1.374   .     S
N459   C478    1.461   .     S
N460   H475    1.044   .     S
N460   C485    1.372   .     S
N460   C486    1.461   .     S
O461   C477    1.221   .     D
O462   C485    1.221   .     D
H463   C478    1.113   .     S
H464   C478    1.111   .     S
H465   C481    1.085   .     S
H466   C482    1.082   .     S
H467   C483    1.083   .     S
H469   C484    1.082   .     S
H470   C486    1.113   .     S
H471   C486    1.112   .     S
C476   C480    1.406   .     A
C476   C481    1.396   .     A
C477   C480    1.483   .     S
C479   C481    1.407   .     A
C479   C483    1.407   .     A
C479   C487    1.485   .     S
C480   C482    1.405   .     A
C482   C483    1.397   .     A
