data_lcy+N505+E225
_audit_creation_date              2025-01-21
_audit_creation_method            'Materials Studio'
_symmetry_space_group_name_H-M    'P1'
_symmetry_Int_Tables_number       1
_symmetry_cell_setting            triclinic
loop_
_symmetry_equiv_pos_as_xyz
  x,y,z
_cell_length_a                    34.8573
_cell_length_b                    34.0673
_cell_length_c                    29.0037
_cell_angle_alpha                 92.2809
_cell_angle_beta                  93.1532
_cell_angle_gamma                 95.1881
loop_
_atom_site_label
_atom_site_type_symbol
_atom_site_fract_x
_atom_site_fract_y
_atom_site_fract_z
_atom_site_U_iso_or_equiv
_atom_site_adp_type
_atom_site_occupancy
Yb0    Yb    0.13815   0.59645   0.81600   0.00000  Uiso   1.00
Yb1    Yb    0.12677   0.69299   0.93274   0.00000  Uiso   1.00
C2     C     0.06763   0.72115   0.95536   0.00000  Uiso   1.00
O3     O     0.09286   0.55629   0.83538   0.00000  Uiso   1.00
O4     O     0.11090   0.55835   0.76394   0.00000  Uiso   1.00
O5     O     0.10114   0.64289   0.80058   0.00000  Uiso   1.00
O6     O     0.09701   0.65989   0.87370   0.00000  Uiso   1.00
O7     O     0.18258   0.55910   0.81872   0.00000  Uiso   1.00
O8     O     0.18772   0.61451   0.78206   0.00000  Uiso   1.00
O9     O     0.17918   0.71528   0.90723   0.00000  Uiso   1.00
O10    O     0.16531   0.72698   0.97949   0.00000  Uiso   1.00
C11    C     0.09040   0.54058   0.79381   0.00000  Uiso   1.00
O12    O     0.15988   0.62888   0.87790   0.00000  Uiso   1.00
O13    O     0.15245   0.64037   0.95103   0.00000  Uiso   1.00
O14    O     0.09126   0.73968   0.92898   0.00000  Uiso   1.00
C15    C     0.09450   0.66879   0.83143   0.00000  Uiso   1.00
O16    O     0.07682   0.68760   0.96934   0.00000  Uiso   1.00
C17    C     0.20177   0.58181   0.79188   0.00000  Uiso   1.00
C18    C     0.18998   0.73061   0.94787   0.00000  Uiso   1.00
C19    C     0.15934   0.61652   0.91852   0.00000  Uiso   1.00
Yb20   Yb    0.66289   0.87234   0.09084   0.00000  Uiso   1.00
Yb21   Yb    0.56219   0.89536   0.18933   0.00000  Uiso   1.00
C22    C     0.52930   0.95147   0.21789   0.00000  Uiso   1.00
O23    O     0.64723   0.91881   0.05109   0.00000  Uiso   1.00
O24    O     0.70588   0.91887   0.08321   0.00000  Uiso   1.00
O25    O     0.64346   0.90044   0.15133   0.00000  Uiso   1.00
O26    O     0.61785   0.92869   0.20845   0.00000  Uiso   1.00
O27    O     0.68874   0.83859   0.04154   0.00000  Uiso   1.00
O28    O     0.69631   0.82845   0.11580   0.00000  Uiso   1.00
O29    O     0.57081   0.84010   0.21568   0.00000  Uiso   1.00
O30    O     0.51451   0.85232   0.18476   0.00000  Uiso   1.00
C31    C     0.68190   0.93581   0.05675   0.00000  Uiso   1.00
O32    O     0.60914   0.83308   0.08350   0.00000  Uiso   1.00
O33    O     0.58142   0.87773   0.12219   0.00000  Uiso   1.00
O34    O     0.53806   0.92375   0.24473   0.00000  Uiso   1.00
C35    C     0.64788   0.92358   0.18662   0.00000  Uiso   1.00
O36    O     0.53747   0.94751   0.17517   0.00000  Uiso   1.00
C37    C     0.70501   0.81994   0.07402   0.00000  Uiso   1.00
C38    C     0.53547   0.82749   0.20413   0.00000  Uiso   1.00
C39    C     0.57857   0.84456   0.10019   0.00000  Uiso   1.00
Yb40   Yb    0.90865   0.06427   0.66355   0.00000  Uiso   1.00
Yb41   Yb    0.87463   0.15903   0.59098   0.00000  Uiso   1.00
C42    C     0.81577   0.18643   0.56077   0.00000  Uiso   1.00
O43    O     0.85968   0.08837   0.68721   0.00000  Uiso   1.00
O44    O     0.86142   0.02436   0.67806   0.00000  Uiso   1.00
O45    O     0.88783   0.06179   0.59132   0.00000  Uiso   1.00
O46    O     0.84283   0.10314   0.59611   0.00000  Uiso   1.00
O47    O     0.93543   0.05194   0.72757   0.00000  Uiso   1.00
O48    O     0.95245   0.02587   0.66218   0.00000  Uiso   1.00
O49    O     0.92426   0.14368   0.55951   0.00000  Uiso   1.00
O50    O     0.91587   0.20565   0.57625   0.00000  Uiso   1.00
C51    C     0.84293   0.05355   0.69148   0.00000  Uiso   1.00
O52    O     0.94950   0.11569   0.65909   0.00000  Uiso   1.00
O53    O     0.90123   0.15250   0.65825   0.00000  Uiso   1.00
O54    O     0.83905   0.17111   0.53348   0.00000  Uiso   1.00
C55    C     0.85678   0.07476   0.57535   0.00000  Uiso   1.00
O56    O     0.82561   0.18796   0.60447   0.00000  Uiso   1.00
C57    C     0.95630   0.02813   0.70676   0.00000  Uiso   1.00
C58    C     0.93784   0.18022   0.56036   0.00000  Uiso   1.00
C59    C     0.93725   0.14976   0.66186   0.00000  Uiso   1.00
Yb60   Yb    0.35046   0.40245   0.30892   0.00000  Uiso   1.00
Yb61   Yb    0.38825   0.33964   0.42616   0.00000  Uiso   1.00
C62    C     0.44385   0.31376   0.46725   0.00000  Uiso   1.00
O63    O     0.40329   0.43337   0.33288   0.00000  Uiso   1.00
O64    O     0.38926   0.42018   0.25894   0.00000  Uiso   1.00
O65    O     0.37170   0.34425   0.30741   0.00000  Uiso   1.00
O66    O     0.41770   0.34290   0.36381   0.00000  Uiso   1.00
O67    O     0.31947   0.45059   0.29179   0.00000  Uiso   1.00
O68    O     0.30023   0.39016   0.26592   0.00000  Uiso   1.00
O69    O     0.33366   0.31361   0.40209   0.00000  Uiso   1.00
O70    O     0.34683   0.32840   0.47596   0.00000  Uiso   1.00
C71    C     0.41212   0.43858   0.29078   0.00000  Uiso   1.00
O72    O     0.31820   0.39713   0.37060   0.00000  Uiso   1.00
O73    O     0.37150   0.39720   0.41361   0.00000  Uiso   1.00
O74    O     0.41626   0.29054   0.44680   0.00000  Uiso   1.00
C75    C     0.39941   0.32804   0.32725   0.00000  Uiso   1.00
O76    O     0.44030   0.35115   0.46641   0.00000  Uiso   1.00
C77    C     0.29528   0.42721   0.26593   0.00000  Uiso   1.00
C78    C     0.32167   0.31493   0.44335   0.00000  Uiso   1.00
C79    C     0.33580   0.40120   0.41028   0.00000  Uiso   1.00
C80    C     0.54030   0.82258   0.08980   0.00000  Uiso   1.00
C81    C     0.50753   0.84372   0.08800   0.00000  Uiso   1.00
C82    C     0.47132   0.82514   0.07411   0.00000  Uiso   1.00
C83    C     0.46715   0.78519   0.05856   0.00000  Uiso   1.00
C84    C     0.49966   0.76367   0.06163   0.00000  Uiso   1.00
C85    C     0.53607   0.78221   0.07676   0.00000  Uiso   1.00
C86    C     0.40477   0.78925   0.02079   0.00000  Uiso   1.00
H87    H     0.25623   0.71481   0.90784   0.00000  Uiso   1.00
H88    H     0.32217   0.74423   0.93018   0.00000  Uiso   1.00
H89    H     0.27743   0.81976   1.03276   0.00000  Uiso   1.00
H90    H     0.21162   0.78945   1.01205   0.00000  Uiso   1.00
H91    H     0.35836   0.74545   0.02092   0.00000  Uiso   1.00
O92    O     0.34149   0.80121   0.99587   0.00000  Uiso   1.00
O93    O     0.43136   0.76568   0.04175   0.00000  Uiso   1.00
C94    C     0.22907   0.75002   0.95844   0.00000  Uiso   1.00
C95    C     0.26054   0.73768   0.93518   0.00000  Uiso   1.00
C96    C     0.29804   0.75403   0.94809   0.00000  Uiso   1.00
C97    C     0.30441   0.78325   0.98391   0.00000  Uiso   1.00
C98    C     0.27291   0.79658   1.00584   0.00000  Uiso   1.00
C99    C     0.23555   0.77952   0.99387   0.00000  Uiso   1.00
C100   C     0.36785   0.77554   0.01250   0.00000  Uiso   1.00
H101   H     0.44677   0.84236   0.07526   0.00000  Uiso   1.00
H102   H     0.49690   0.73263   0.05113   0.00000  Uiso   1.00
H103   H     0.50989   0.87498   0.09734   0.00000  Uiso   1.00
H104   H     0.41361   0.81903   0.01085   0.00000  Uiso   1.00
H105   H     0.56088   0.76524   0.07762   0.00000  Uiso   1.00
C106   C     0.40897   0.28983   0.30811   0.00000  Uiso   1.00
C107   C     0.40831   0.25705   0.33576   0.00000  Uiso   1.00
C108   C     0.41620   0.22036   0.31738   0.00000  Uiso   1.00
C109   C     0.42561   0.21606   0.27089   0.00000  Uiso   1.00
C110   C     0.42507   0.24867   0.24304   0.00000  Uiso   1.00
C111   C     0.41675   0.28532   0.26140   0.00000  Uiso   1.00
C112   C     0.45121   0.15374   0.27853   0.00000  Uiso   1.00
H113   H     0.51648   0.01731   0.17136   0.00000  Uiso   1.00
H114   H     0.49450   0.07824   0.20208   0.00000  Uiso   1.00
H115   H     0.48143   0.02695   0.33455   0.00000  Uiso   1.00
H116   H     0.50505   0.96596   0.30418   0.00000  Uiso   1.00
H117   H     0.44357   0.10788   0.22803   0.00000  Uiso   1.00
O118   O     0.47401   0.09177   0.29120   0.00000  Uiso   1.00
O119   O     0.43275   0.17963   0.25018   0.00000  Uiso   1.00
C120   C     0.51216  -0.01324   0.23534   0.00000  Uiso   1.00
C121   C     0.50825   0.01872   0.20683   0.00000  Uiso   1.00
C122   C     0.49518   0.05356   0.22435   0.00000  Uiso   1.00
C123   C     0.48476   0.05670   0.27056   0.00000  Uiso   1.00
C124   C     0.48854   0.02470   0.29873   0.00000  Uiso   1.00
C125   C     0.50199  -0.01001   0.28137   0.00000  Uiso   1.00
C126   C     0.45546   0.11733   0.26253   0.00000  Uiso   1.00
H127   H     0.41385   0.19534   0.33922   0.00000  Uiso   1.00
H128   H     0.43131   0.24559   0.20699   0.00000  Uiso   1.00
H129   H     0.40017   0.25936   0.37100   0.00000  Uiso   1.00
H130   H     0.46341   0.16302   0.31295   0.00000  Uiso   1.00
H131   H     0.41655   0.31017   0.23926   0.00000  Uiso   1.00
C132   C     0.77904   0.20033   0.54316   0.00000  Uiso   1.00
C133   C     0.75822   0.22374   0.57176   0.00000  Uiso   1.00
C134   C     0.72240   0.23511   0.55615   0.00000  Uiso   1.00
C135   C     0.70594   0.22200   0.51204   0.00000  Uiso   1.00
C136   C     0.72757   0.19998   0.48295   0.00000  Uiso   1.00
C137   C     0.76372   0.18910   0.49828   0.00000  Uiso   1.00
C138   C     0.64178   0.23816   0.52706   0.00000  Uiso   1.00
H139   H     0.47068   0.24203   0.45084   0.00000  Uiso   1.00
H140   H     0.53045   0.21852   0.48406   0.00000  Uiso   1.00
H141   H     0.55384   0.32665   0.56658   0.00000  Uiso   1.00
H142   H     0.49461   0.35091   0.53296   0.00000  Uiso   1.00
H143   H     0.60219   0.25483   0.47629   0.00000  Uiso   1.00
O144   O     0.58130   0.25898   0.54557   0.00000  Uiso   1.00
O145   O     0.66946   0.23151   0.49479   0.00000  Uiso   1.00
C146   C     0.47830   0.29844   0.48921   0.00000  Uiso   1.00
C147   C     0.48855   0.26077   0.47613   0.00000  Uiso   1.00
C148   C     0.52273   0.24747   0.49459   0.00000  Uiso   1.00
C149   C     0.54691   0.27154   0.52661   0.00000  Uiso   1.00
C150   C     0.53581   0.30826   0.54118   0.00000  Uiso   1.00
C151   C     0.50210   0.32195   0.52207   0.00000  Uiso   1.00
C152   C     0.60796   0.25035   0.51289   0.00000  Uiso   1.00
H153   H     0.70806   0.25442   0.57859   0.00000  Uiso   1.00
H154   H     0.71602   0.19070   0.44842   0.00000  Uiso   1.00
H155   H     0.76971   0.23342   0.60622   0.00000  Uiso   1.00
H156   H     0.64674   0.23308   0.56355   0.00000  Uiso   1.00
H157   H     0.77927   0.17118   0.47540   0.00000  Uiso   1.00
C158   C     0.80604   0.04774   0.71393   0.00000  Uiso   1.00
C159   C     0.78933   0.08061   0.73215   0.00000  Uiso   1.00
C160   C     0.75921   0.07553   0.76174   0.00000  Uiso   1.00
C161   C     0.74534   0.03750   0.77345   0.00000  Uiso   1.00
C162   C     0.75955   0.00465   0.75211   0.00000  Uiso   1.00
C163   C     0.78993   0.00965   0.72270   0.00000  Uiso   1.00
C164   C     0.73202   0.04880   0.85098   0.00000  Uiso   1.00
H165   H     0.75491   0.97011   0.04787   0.00000  Uiso   1.00
H166   H     0.77450   1.01989   0.99257   0.00000  Uiso   1.00
H167   H     0.65522   0.03073   0.95289   0.00000  Uiso   1.00
H168   H     0.63534  -0.01909   0.00749   0.00000  Uiso   1.00
H169   H     0.68662   1.01942   0.88333   0.00000  Uiso   1.00
O170   O     0.72900   0.05172   0.93229   0.00000  Uiso   1.00
O171   O     0.71867   0.03179   0.80745   0.00000  Uiso   1.00
C172   C     0.69364   0.97109   0.03123   0.00000  Uiso   1.00
C173   C     0.73289   0.98365   0.02797   0.00000  Uiso   1.00
C174   C     0.74409   1.01194   0.99651   0.00000  Uiso   1.00
C175   C     0.71644   1.02769   0.96763   0.00000  Uiso   1.00
C176   C     0.67707   0.01773   0.97369   0.00000  Uiso   1.00
C177   C     0.66583   0.98951   0.00509   0.00000  Uiso   1.00
C178   C     0.71284   1.03939   0.88805   0.00000  Uiso   1.00
H179   H     0.74768   0.10113   0.77702   0.00000  Uiso   1.00
H180   H     0.74850   0.97520   0.76036   0.00000  Uiso   1.00
H181   H     0.80074   0.11030   0.72534   0.00000  Uiso   1.00
H182   H     0.75957   0.06673   0.85577   0.00000  Uiso   1.00
H183   H     0.80195  -0.01619   0.70862   0.00000  Uiso   1.00
C184   C     0.83737   0.05781   0.53155   0.00000  Uiso   1.00
C185   C     0.85551   0.03200   0.50260   0.00000  Uiso   1.00
C186   C     0.83615   0.01511   0.46199   0.00000  Uiso   1.00
C187   C     0.79830   0.02376   0.44996   0.00000  Uiso   1.00
C188   C     0.78031   0.04929   0.47889   0.00000  Uiso   1.00
C189   C     0.79971   0.06661   0.51895   0.00000  Uiso   1.00
C190   C     0.79311   0.00026   0.37057   0.00000  Uiso   1.00
H191   H     0.66086  -0.00561   0.23284   0.00000  Uiso   1.00
H192   H     0.71988   0.02026   0.27747   0.00000  Uiso   1.00
H193   H     0.77850   0.92312   0.22589   0.00000  Uiso   1.00
H194   H     0.71953   0.89761   0.17931   0.00000  Uiso   1.00
H195   H     0.74124  -0.02678   0.34143   0.00000  Uiso   1.00
O196   O     0.78356   0.98210   0.28965   0.00000  Uiso   1.00
O197   O     0.77593   0.00433   0.41291   0.00000  Uiso   1.00
C198   C     0.68557   0.94369   0.20336   0.00000  Uiso   1.00
C199   C     0.68663   0.97915   0.22990   0.00000  Uiso   1.00
C200   C     0.72016  -0.00620   0.25561   0.00000  Uiso   1.00
C201   C     0.75295   0.97259   0.25631   0.00000  Uiso   1.00
C202   C     0.75325   0.93942   0.22619   0.00000  Uiso   1.00
C203   C     0.71965   0.92493   0.19977   0.00000  Uiso   1.00
C204   C     0.77076  -0.01602   0.33483   0.00000  Uiso   1.00
H205   H     0.85013   0.99438   0.44093   0.00000  Uiso   1.00
H206   H     0.75086   0.05544   0.47048   0.00000  Uiso   1.00
H207   H     0.88440   1.02447   0.51167   0.00000  Uiso   1.00
H208   H     0.82259   1.01212   0.36581   0.00000  Uiso   1.00
H209   H     0.78481   0.08614   0.54066   0.00000  Uiso   1.00
C210   C     0.31590   0.41048   0.45262   0.00000  Uiso   1.00
C211   C     0.27700   0.41848   0.45085   0.00000  Uiso   1.00
C212   C     0.26033   0.43145   0.49096   0.00000  Uiso   1.00
C213   C     0.28229   0.43697   0.53306   0.00000  Uiso   1.00
C214   C     0.32042   0.42655   0.53530   0.00000  Uiso   1.00
C215   C     0.33711   0.41398   0.49549   0.00000  Uiso   1.00
C216   C     0.28955   0.47904   0.60072   0.00000  Uiso   1.00
H217   H     0.22893   0.50944   0.79380   0.00000  Uiso   1.00
H218   H     0.27072   0.48233   0.73769   0.00000  Uiso   1.00
H219   H     0.29143   0.59660   0.68127   0.00000  Uiso   1.00
H220   H     0.24916   0.62421   0.73663   0.00000  Uiso   1.00
H221   H     0.24869   0.48247   0.65022   0.00000  Uiso   1.00
O222   O     0.30117   0.52141   0.66746   0.00000  Uiso   1.00
O223   O     0.26530   0.45189   0.57210   0.00000  Uiso   1.00
C224   C     0.23528   0.56879   0.76884   0.00000  Uiso   1.00
C225   C     0.24315   0.52908   0.77024   0.00000  Uiso   1.00
C226   C     0.26667   0.51346   0.73810   0.00000  Uiso   1.00
C227   C     0.28276   0.53741   0.70451   0.00000  Uiso   1.00
C228   C     0.27846   0.57783   0.70648   0.00000  Uiso   1.00
C229   C     0.25452   0.59345   0.73816   0.00000  Uiso   1.00
C230   C     0.27745   0.49271   0.64042   0.00000  Uiso   1.00
H231   H     0.23064   0.43855   0.48908   0.00000  Uiso   1.00
H232   H     0.33757   0.42876   0.56773   0.00000  Uiso   1.00
H233   H     0.25989   0.41592   0.41838   0.00000  Uiso   1.00
H234   H     0.31772   0.49061   0.59040   0.00000  Uiso   1.00
H235   H     0.36698   0.40749   0.49827   0.00000  Uiso   1.00
C236   C     0.16239   0.57517   0.92874   0.00000  Uiso   1.00
C237   C     0.19752   0.55856   0.92515   0.00000  Uiso   1.00
C238   C     0.20405   0.52428   0.94830   0.00000  Uiso   1.00
C239   C     0.17584   0.50709  -0.02415   0.00000  Uiso   1.00
C240   C     0.13916   0.52117   0.97474   0.00000  Uiso   1.00
C241   C     0.13263   0.55528   0.95174   0.00000  Uiso   1.00
C242   C     0.17966   0.49035   0.05349   0.00000  Uiso   1.00
H243   H     0.24420   0.38448   0.20479   0.00000  Uiso   1.00
H244   H     0.20029   0.40980   0.14686   0.00000  Uiso   1.00
H245   H     0.23419   0.52848   0.19972   0.00000  Uiso   1.00
H246   H     0.27829   0.50339   0.25815   0.00000  Uiso   1.00
H247   H     0.21266   0.44787   0.08098   0.00000  Uiso   1.00
O248   O     0.19214   0.48711   0.13383   0.00000  Uiso   1.00
O249   O     0.18608   0.47918   0.00749   0.00000  Uiso   1.00
C250   C     0.26504   0.44206   0.23553   0.00000  Uiso   1.00
C251   C     0.24211   0.41596   0.20433   0.00000  Uiso   1.00
C252   C     0.21738   0.43039   0.17088   0.00000  Uiso   1.00
C253   C     0.21528   0.47122   0.16805   0.00000  Uiso   1.00
C254   C     0.23617   0.49702   0.20104   0.00000  Uiso   1.00
C255   C     0.26116   0.48266   0.23433   0.00000  Uiso   1.00
C256   C     0.19536   0.47207   0.08851   0.00000  Uiso   1.00
H257   H     0.23214   0.51310  -0.05195   0.00000  Uiso   1.00
H258   H     0.11666   0.50745   0.99465   0.00000  Uiso   1.00
H259   H     0.22091   0.57383   0.90787   0.00000  Uiso   1.00
H260   H     0.16433   0.51595   0.06171   0.00000  Uiso   1.00
H261   H     0.10532   0.56778   0.95470   0.00000  Uiso   1.00
C262   C     0.28062   0.30408   0.45157   0.00000  Uiso   1.00
C263   C     0.25351   0.29804   0.41366   0.00000  Uiso   1.00
C264   C     0.21421   0.29082   0.42042   0.00000  Uiso   1.00
C265   C     0.20110   0.28847   0.46499   0.00000  Uiso   1.00
C266   C     0.22808   0.29433   0.50321   0.00000  Uiso   1.00
C267   C     0.26754   0.30230   0.49650   0.00000  Uiso   1.00
C268   C     0.14817   0.25658   0.50199   0.00000  Uiso   1.00
H269   H     0.97454   0.25459   0.55517   0.00000  Uiso   1.00
H270   H     0.04369   0.27174   0.54643   0.00000  Uiso   1.00
H271   H     0.06083   0.14848   0.53094   0.00000  Uiso   1.00
H272   H     0.99205   0.13101   0.53950   0.00000  Uiso   1.00
H273   H     0.09023   0.26583   0.48738   0.00000  Uiso   1.00
O274   O     0.09731   0.21911   0.53538   0.00000  Uiso   1.00
O275   O     0.16108   0.28377   0.46984   0.00000  Uiso   1.00
C276   C     0.97781   0.19148   0.54772   0.00000  Uiso   1.00
C277   C     0.99290   0.23122   0.54873   0.00000  Uiso   1.00
C278   C     0.03233   0.24105   0.54340   0.00000  Uiso   1.00
C279   C     0.05714   0.21117   0.53660   0.00000  Uiso   1.00
C280   C     0.04193   0.17174   0.53515   0.00000  Uiso   1.00
C281   C     1.00264   0.16191   0.53994   0.00000  Uiso   1.00
C282   C     0.11036   0.24953   0.50726   0.00000  Uiso   1.00
H283   H     0.19375   0.28716   0.39076   0.00000  Uiso   1.00
H284   H     0.21851   0.29389   0.53806   0.00000  Uiso   1.00
H285   H     0.26254   0.30003   0.37862   0.00000  Uiso   1.00
H286   H     0.16817   0.23930   0.52070   0.00000  Uiso   1.00
H287   H     0.28766   0.30771   0.52635   0.00000  Uiso   1.00
C288   C     0.98164   0.00295   0.73243   0.00000  Uiso   1.00
C289   C     0.00818   0.98212   0.70904   0.00000  Uiso   1.00
C290   C     0.02856   0.95432   0.73166   0.00000  Uiso   1.00
C291   C     0.02158   0.94560   0.77777   0.00000  Uiso   1.00
C292   C     0.99727   0.96854   0.80202   0.00000  Uiso   1.00
C293   C     0.97734   0.99691   0.77959   0.00000  Uiso   1.00
C294   C     0.04232   0.88069   0.77310   0.00000  Uiso   1.00
H295   H     0.03956   0.71555   0.86031   0.00000  Uiso   1.00
H296   H     0.02565   0.78002   0.83096   0.00000  Uiso   1.00
H297   H     0.11550   0.77347   0.73596   0.00000  Uiso   1.00
H298   H     0.13029   0.70979   0.76578   0.00000  Uiso   1.00
H299   H     0.06520   0.84979   0.82798   0.00000  Uiso   1.00
O300   O     0.06141   0.81667   0.76180   0.00000  Uiso   1.00
O301   O     0.03817   0.91489   0.80059   0.00000  Uiso   1.00
C302   C     0.08727   0.70872   0.81695   0.00000  Uiso   1.00
C303   C     0.05752   0.72884   0.83478   0.00000  Uiso   1.00
C304   C     0.04956   0.76553   0.81808   0.00000  Uiso   1.00
C305   C     0.07108   0.78232   0.78296   0.00000  Uiso   1.00
C306   C     0.09976   0.76156   0.76421   0.00000  Uiso   1.00
C307   C     0.10802   0.72528   0.78117   0.00000  Uiso   1.00
C308   C     0.05653   0.84927   0.79133   0.00000  Uiso   1.00
H309   H     0.04919   0.93921   0.71277   0.00000  Uiso   1.00
H310   H     0.99256   0.96326   0.83794   0.00000  Uiso   1.00
H311   H     0.01264  -0.01327   0.67294   0.00000  Uiso   1.00
H312   H     0.03298   0.87835   0.73666   0.00000  Uiso   1.00
H313   H     0.95734   1.01286   0.79860   0.00000  Uiso   1.00
C314   C     0.06867   0.50203   0.78150   0.00000  Uiso   1.00
C315   C     0.07579   0.48168   0.74017   0.00000  Uiso   1.00
C316   C     0.06038   0.44273   0.73075   0.00000  Uiso   1.00
C317   C     0.03805   0.42288   0.76330   0.00000  Uiso   1.00
C318   C     0.02930   0.44405   0.80325   0.00000  Uiso   1.00
C319   C     0.04463   0.48312   0.81260   0.00000  Uiso   1.00
C320   C     0.03823   0.35705   0.72622   0.00000  Uiso   1.00
H321   H     0.91745   0.22297   0.68286   0.00000  Uiso   1.00
H322   H     0.95888   0.28370   0.69520   0.00000  Uiso   1.00
H323   H     0.05818   0.22175   0.66696   0.00000  Uiso   1.00
H324   H     1.01595   0.15975   0.65381   0.00000  Uiso   1.00
H325   H     1.00613   0.30911   0.75194   0.00000  Uiso   1.00
O326   O     0.03718   0.29191   0.69242   0.00000  Uiso   1.00
O327   O     0.02364   0.38282   0.75866   0.00000  Uiso   1.00
C328   C     0.96361   0.18630   0.66865   0.00000  Uiso   1.00
C329   C     0.94819   0.22194   0.67985   0.00000  Uiso   1.00
C330   C     0.97205   0.25682   0.68742   0.00000  Uiso   1.00
C331   C     1.01228   0.25703   0.68464   0.00000  Uiso   1.00
C332   C     0.02754   0.22186   0.67122   0.00000  Uiso   1.00
C333   C     1.00351   0.18659   0.66381   0.00000  Uiso   1.00
C334   C     1.02581   0.31886   0.72594   0.00000  Uiso   1.00
H335   H     0.06644   0.42894   0.69816   0.00000  Uiso   1.00
H336   H     1.01135   0.42960   0.82802   0.00000  Uiso   1.00
H337   H     0.09465   0.49537   0.71575   0.00000  Uiso   1.00
H338   H     0.05852   0.36663   0.70104   0.00000  Uiso   1.00
H339   H     0.03848   0.49813   0.84459   0.00000  Uiso   1.00
C340   C     0.73401   0.79232   0.06376   0.00000  Uiso   1.00
C341   C     0.75848   0.77987   0.09938   0.00000  Uiso   1.00
C342   C     0.78996   0.75913   0.08878   0.00000  Uiso   1.00
C343   C     0.79723   0.75060   0.04261   0.00000  Uiso   1.00
C344   C     0.77161   0.76080   1.00719   0.00000  Uiso   1.00
C345   C     0.74025   0.78163   0.01763   0.00000  Uiso   1.00
C346   C     0.86103   0.76114   0.02285   0.00000  Uiso   1.00
H347   H     0.03622   0.78669   0.92460   0.00000  Uiso   1.00
H348   H     0.97390   0.80972   0.94368   0.00000  Uiso   1.00
H349   H     0.95646   0.71449   0.03603   0.00000  Uiso   1.00
H350   H     0.01734   0.69065   0.01589   0.00000  Uiso   1.00
H351   H     0.89589   0.71788   1.00205   0.00000  Uiso   1.00
O352   O     0.92423   0.77748  -0.00079   0.00000  Uiso   1.00
O353   O     0.83055   0.73317   0.03179   0.00000  Uiso   1.00
C354   C     0.03132   0.73663   0.96831   0.00000  Uiso   1.00
C355   C     0.01882   0.77059   0.94867   0.00000  Uiso   1.00
C356   C     0.98331   0.78368   0.95940   0.00000  Uiso   1.00
C357   C     0.95960   0.76301   0.98948   0.00000  Uiso   1.00
C358   C     0.97297   0.72993   0.01071   0.00000  Uiso   1.00
C359   C     0.00822   0.71665  -0.00027   0.00000  Uiso   1.00
C360   C     0.89383   0.74930   1.00814   0.00000  Uiso   1.00
H361   H     0.80953   0.75100   0.11631   0.00000  Uiso   1.00
H362   H     0.77676   0.75368   0.97148   0.00000  Uiso   1.00
H363   H     0.75430   0.78765   0.13521   0.00000  Uiso   1.00
H364   H     0.85850   0.79265   0.02792   0.00000  Uiso   1.00
H365   H     0.72166   0.79053   0.98953   0.00000  Uiso   1.00
C366   C     0.52018   0.78650   0.21187   0.00000  Uiso   1.00
C367   C     0.48304   0.77187   0.19447   0.00000  Uiso   1.00
C368   C     0.46914   0.73281   0.20123   0.00000  Uiso   1.00
C369   C     0.49206   0.70747   0.22484   0.00000  Uiso   1.00
C370   C     0.52894   0.72250   0.24338   0.00000  Uiso   1.00
C371   C     0.54292   0.76150   0.23654   0.00000  Uiso   1.00
C372   C     0.50089   0.63889   0.23598   0.00000  Uiso   1.00
H373   H     0.43362   0.45922   0.20511   0.00000  Uiso   1.00
H374   H     0.47459   0.51882   0.18726   0.00000  Uiso   1.00
H375   H     0.50186   0.54464   0.33231   0.00000  Uiso   1.00
H376   H     0.46099   0.48527   0.35097   0.00000  Uiso   1.00
H377   H     0.45555   0.59729   0.24929   0.00000  Uiso   1.00
O378   O     0.51057   0.57181   0.24869   0.00000  Uiso   1.00
O379   O     0.47583   0.66885   0.23152   0.00000  Uiso   1.00
C380   C     0.44390   0.46783   0.27950   0.00000  Uiso   1.00
C381   C     0.44912   0.47699   0.23321   0.00000  Uiso   1.00
C382   C     0.47221   0.51098   0.22290   0.00000  Uiso   1.00
C383   C     0.49052   0.53594   0.25864   0.00000  Uiso   1.00
C384   C     0.48763   0.52548   0.30460   0.00000  Uiso   1.00
C385   C     0.46449   0.49160   0.31503   0.00000  Uiso   1.00
C386   C     0.48639   0.60252   0.24493   0.00000  Uiso   1.00
H387   H     0.44037   0.72205   0.18778   0.00000  Uiso   1.00
H388   H     0.54677   0.70468   0.26396   0.00000  Uiso   1.00
H389   H     0.46477   0.79049   0.17545   0.00000  Uiso   1.00
H390   H     0.53151   0.64406   0.23076   0.00000  Uiso   1.00
H391   H     0.57146   0.77220   0.25087   0.00000  Uiso   1.00
loop_
_geom_bond_atom_site_label_1
_geom_bond_atom_site_label_2
_geom_bond_distance
_geom_bond_site_symmetry_2
_ccdc_geom_bond_type
Yb0    O3      2.109   .     S
Yb0    O4      2.081   .     S
Yb0    O5      2.175   .     S
Yb0    O7      2.091   .     S
Yb0    O8      2.092   .     S
Yb0    O12     2.135   .     S
Yb1    O6      2.173   .     S
Yb1    O9      2.099   .     S
Yb1    O10     2.092   .     S
Yb1    O13     2.147   .     S
Yb1    O14     2.104   .     S
Yb1    O16     2.086   .     S
C2     O14     1.295   .     A
C2     O16     1.289   .     A
C2     C354    1.476   .     S
O3     C11     1.295   .     A
O4     C11     1.288   .     A
O5     C15     1.277   .     A
O6     C15     1.275   .     A
O7     C17     1.290   .     A
O8     C17     1.292   .     A
O9     C18     1.292   .     A
O10    C18     1.293   .     A
C11    C314    1.476   .     S
O12    C19     1.267   .     A
O13    C19     1.267   .     A
C15    C302    1.478   .     S
C17    C224    1.471   .     S
C18    C94     1.471   .     S
C19    C236    1.463   .     S
Yb20   O23     2.089   .     S
Yb20   O24     2.108   .     S
Yb20   O25     2.137   .     S
Yb20   O27     2.092   .     S
Yb20   O28     2.103   .     S
Yb20   O32     2.197   .     S
Yb21   O26     2.189   .     S
Yb21   O29     2.100   .     S
Yb21   O30     2.109   .     S
Yb21   O33     2.174   .     S
Yb21   O34     2.097   .     S
Yb21   O36     2.089   .     S
C22    O34     1.294   .     A
C22    O36     1.291   .     A
C22    C120    1.474   1_565 S
O23    C31     1.291   .     A
O24    C31     1.293   .     A
O25    C35     1.261   .     A
O26    C35     1.274   .     A
O27    C37     1.291   .     A
O28    C37     1.293   .     A
O29    C38     1.289   .     A
O30    C38     1.292   .     A
C31    C172    1.475   .     S
O32    C39     1.280   .     A
O33    C39     1.269   .     A
C35    C198    1.474   .     S
C37    C340    1.476   .     S
C38    C366    1.479   .     S
C39    C80     1.479   .     S
Yb40   O43     2.097   .     S
Yb40   O44     2.110   .     S
Yb40   O45     2.175   .     S
Yb40   O47     2.107   .     S
Yb40   O48     2.100   .     S
Yb40   O52     2.168   .     S
Yb41   O46     2.129   .     S
Yb41   O49     2.097   .     S
Yb41   O50     2.117   .     S
Yb41   O53     2.142   .     S
Yb41   O54     2.100   .     S
Yb41   O56     2.096   .     S
C42    O54     1.293   .     A
C42    O56     1.293   .     A
C42    C132    1.477   .     S
O43    C51     1.288   .     A
O44    C51     1.292   .     A
O45    C55     1.276   .     A
O46    C55     1.267   .     A
O47    C57     1.292   .     A
O48    C57     1.291   .     A
O49    C58     1.290   .     A
O50    C58     1.295   .     A
C51    C158    1.474   .     S
O52    C59     1.274   .     A
O53    C59     1.266   .     A
C55    C184    1.477   .     S
C57    C288    1.478   .     S
C58    C276    1.481   .     S
C59    C328    1.479   .     S
Yb60   O63     2.106   .     S
Yb60   O64     2.105   .     S
Yb60   O65     2.178   .     S
Yb60   O67     2.105   .     S
Yb60   O68     2.093   .     S
Yb60   O72     2.170   .     S
Yb61   O66     2.130   .     S
Yb61   O69     2.096   .     S
Yb61   O70     2.119   .     S
Yb61   O73     2.135   .     S
Yb61   O74     2.103   .     S
Yb61   O76     2.100   .     S
C62    O74     1.290   .     A
C62    O76     1.292   .     A
C62    C146    1.475   .     S
O63    C71     1.291   .     A
O64    C71     1.290   .     A
O65    C75     1.277   .     A
O66    C75     1.269   .     A
O67    C77     1.292   .     A
O68    C77     1.289   .     A
O69    C78     1.290   .     A
O70    C78     1.294   .     A
C71    C380    1.481   .     S
O72    C79     1.271   .     A
O73    C79     1.263   .     A
C75    C106    1.468   .     S
C77    C250    1.475   .     S
C78    C262    1.480   .     S
C79    C210    1.480   .     S
C80    C81     1.404   .     A
C80    C85     1.404   .     A
C81    C82     1.391   .     A
C81    H103    1.083   .     S
C82    C83     1.409   .     A
C82    H101    1.081   .     S
C83    C84     1.405   .     A
C83    O93     1.412   .     S
C84    C85     1.405   .     A
C84    H102    1.083   .     S
C85    H105    1.083   .     S
C86    O93     1.409   .     S
C86    C100    1.334   .     D
C86    H104    1.088   .     S
H87    C95     1.084   .     S
H88    C96     1.083   .     S
H89    C98     1.083   .     S
H90    C99     1.083   .     S
H91    C100    1.089   .     S
O92    C97     1.398   .     S
O92    C100    1.404   1_556 S
C94    C95     1.406   .     A
C94    C99     1.403   .     A
C95    C96     1.399   .     A
C96    C97     1.404   .     A
C97    C98     1.400   .     A
C98    C99     1.397   .     A
C100   O92     1.404   1_554 S
C106   C107    1.400   .     A
C106   C111    1.401   .     A
C107   C108    1.395   .     A
C107   H129    1.078   .     S
C108   C109    1.410   .     A
C108   H127    1.082   .     S
C109   C110    1.400   .     A
C109   O119    1.406   .     S
C110   C111    1.398   .     A
C110   H128    1.082   .     S
C111   H131    1.083   .     S
C112   O119    1.404   .     S
C112   C126    1.331   .     D
C112   H130    1.087   .     S
H113   C121    1.083   .     S
H114   C122    1.081   .     S
H115   C124    1.083   .     S
H116   C125    1.082   1_565 S
H117   C126    1.087   .     S
O118   C123    1.405   .     S
O118   C126    1.403   .     S
C120   C121    1.405   .     A
C120   C125    1.403   .     A
C120   C22     1.474   1_545 S
C121   C122    1.396   .     A
C122   C123    1.410   .     A
C123   C124    1.399   .     A
C124   C125    1.397   .     A
C125   H116    1.082   1_545 S
C132   C133    1.403   .     A
C132   C137    1.405   .     A
C133   C134    1.398   .     A
C133   H155    1.083   .     S
C134   C135    1.412   .     A
C134   H153    1.081   .     S
C135   C136    1.402   .     A
C135   O145    1.410   .     S
C136   C137    1.400   .     A
C136   H154    1.083   .     S
C137   H157    1.084   .     S
C138   O145    1.407   .     S
C138   C152    1.334   .     D
C138   H156    1.086   .     S
H139   C147    1.084   .     S
H140   C148    1.082   .     S
H141   C150    1.082   .     S
H142   C151    1.083   .     S
H143   C152    1.089   .     S
O144   C149    1.400   .     S
O144   C152    1.404   .     S
C146   C147    1.406   .     A
C146   C151    1.404   .     A
C147   C148    1.399   .     A
C148   C149    1.405   .     A
C149   C150    1.399   .     A
C150   C151    1.398   .     A
C158   C159    1.406   .     A
C158   C163    1.405   .     A
C159   C160    1.395   .     A
C159   H181    1.083   .     S
C160   C161    1.403   .     A
C160   H179    1.082   .     S
C161   C162    1.400   .     A
C161   O171    1.399   .     S
C162   C163    1.399   .     A
C162   H180    1.082   1_545 S
C163   H183    1.084   .     S
C164   O171    1.405   .     S
C164   H182    1.090   .     S
C164   C178    1.332   1_545 D
H165   C173    1.082   .     S
H166   C174    1.083   .     S
H167   C176    1.082   .     S
H168   C177    1.083   1_545 S
H169   C178    1.088   .     S
O170   C175    1.402   1_545 S
O170   C178    1.405   1_545 S
C172   C173    1.406   .     A
C172   C177    1.406   .     A
C173   C174    1.398   1_554 A
C174   C175    1.400   .     A
C174   C173    1.398   1_556 A
C175   O170    1.402   1_565 S
C175   C176    1.406   1_565 A
C176   C175    1.406   1_545 A
C176   C177    1.396   1_546 A
C177   H168    1.083   1_565 S
C177   C176    1.396   1_564 A
C178   C164    1.332   1_565 D
C178   O170    1.405   1_565 S
H180   C162    1.082   1_565 S
C184   C185    1.406   .     A
C184   C189    1.405   .     A
C185   C186    1.401   .     A
C185   H207    1.083   1_545 S
C186   C187    1.406   .     A
C186   H205    1.082   1_545 S
C187   C188    1.397   .     A
C187   O197    1.400   .     S
C188   C189    1.394   .     A
C188   H206    1.083   .     S
C189   H209    1.083   .     S
C190   O197    1.403   .     S
C190   C204    1.333   .     D
C190   H208    1.088   1_545 S
H191   C199    1.083   1_545 S
H192   C200    1.083   .     S
H193   C202    1.082   .     S
H194   C203    1.083   .     S
H195   C204    1.090   .     S
O196   C201    1.406   .     S
O196   C204    1.408   1_565 S
C198   C199    1.403   .     A
C198   C203    1.406   .     A
C199   H191    1.083   1_565 S
C199   C200    1.393   1_565 A
C200   C199    1.393   1_545 A
C200   C201    1.406   1_545 A
C201   C202    1.402   .     A
C201   C200    1.406   1_565 A
C202   C203    1.403   .     A
C204   O196    1.408   1_545 S
H205   C186    1.082   1_565 S
H207   C185    1.083   1_565 S
H208   C190    1.088   1_565 S
C210   C211    1.406   .     A
C210   C215    1.406   .     A
C211   C212    1.402   .     A
C211   H233    1.083   .     S
C212   C213    1.402   .     A
C212   H231    1.083   .     S
C213   C214    1.405   .     A
C213   O223    1.405   .     S
C214   C215    1.391   .     A
C214   H232    1.082   .     S
C215   H235    1.083   .     S
C216   O223    1.407   .     S
C216   C230    1.329   .     D
C216   H234    1.087   .     S
H217   C225    1.083   .     S
H218   C226    1.082   .     S
H219   C228    1.081   .     S
H220   C229    1.083   .     S
H221   C230    1.088   .     S
O222   C227    1.399   .     S
O222   C230    1.406   .     S
C224   C225    1.406   .     A
C224   C229    1.404   .     A
C225   C226    1.396   .     A
C226   C227    1.403   .     A
C227   C228    1.398   .     A
C228   C229    1.396   .     A
C236   C237    1.402   .     A
C236   C241    1.402   .     A
C237   C238    1.400   .     A
C237   H259    1.084   .     S
C238   C239    1.403   1_556 A
C238   H257    1.082   1_556 S
C239   O249    1.403   .     S
C239   C238    1.403   1_554 A
C239   C240    1.405   1_554 A
C240   C241    1.393   .     A
C240   H258    1.083   .     S
C240   C239    1.405   1_556 A
C241   H261    1.084   .     S
C242   O249    1.408   .     S
C242   C256    1.330   .     D
C242   H260    1.088   .     S
H243   C251    1.082   .     S
H244   C252    1.082   .     S
H245   C254    1.082   .     S
H246   C255    1.083   .     S
H247   C256    1.087   .     S
O248   C253    1.401   .     S
O248   C256    1.406   .     S
C250   C251    1.406   .     A
C250   C255    1.403   .     A
C251   C252    1.396   .     A
C252   C253    1.405   .     A
C253   C254    1.400   .     A
C254   C255    1.397   .     A
H257   C238    1.082   1_554 S
C262   C263    1.406   .     A
C262   C267    1.406   .     A
C263   C264    1.396   .     A
C263   H285    1.083   .     S
C264   C265    1.397   .     A
C264   H283    1.083   .     S
C265   C266    1.409   .     A
C265   O275    1.405   .     S
C266   C267    1.403   .     A
C266   H284    1.082   .     S
C267   H287    1.083   .     S
C268   O275    1.403   .     S
C268   C282    1.337   .     D
C268   H286    1.089   .     S
H269   C277    1.083   .     S
H270   C278    1.082   .     S
H271   C280    1.083   .     S
H272   C281    1.083   .     S
H273   C282    1.088   .     S
O274   C279    1.405   .     S
O274   C282    1.403   .     S
C276   C277    1.406   .     A
C276   C281    1.406   .     A
C277   C278    1.403   1_655 A
C278   C279    1.409   .     A
C278   C277    1.403   1_455 A
C279   C280    1.397   .     A
C280   C281    1.396   1_455 A
C281   C280    1.396   1_655 A
C288   C289    1.403   1_645 A
C288   C293    1.405   1_545 A
C289   C290    1.397   .     A
C289   C288    1.403   1_465 A
C289   H311    1.083   1_565 S
C290   C291    1.411   .     A
C290   H309    1.082   .     S
C291   O301    1.411   .     S
C291   C292    1.402   1_455 A
C292   C293    1.401   .     A
C292   H310    1.083   .     S
C292   C291    1.402   1_655 A
C293   H313    1.083   .     S
C293   C288    1.405   1_565 A
C294   O301    1.408   .     S
C294   C308    1.335   .     D
C294   H312    1.086   .     S
H295   C303    1.082   .     S
H296   C304    1.082   .     S
H297   C306    1.083   .     S
H298   C307    1.083   .     S
H299   C308    1.088   .     S
O300   C305    1.402   .     S
O300   C308    1.404   .     S
C302   C303    1.405   .     A
C302   C307    1.405   .     A
C303   C304    1.404   .     A
C304   C305    1.407   .     A
C305   C306    1.398   .     A
C306   C307    1.396   .     A
H311   C289    1.083   1_545 S
C314   C315    1.406   .     A
C314   C319    1.401   .     A
C315   C316    1.397   .     A
C315   H337    1.083   .     S
C316   C317    1.411   .     A
C316   H335    1.079   .     S
C317   C318    1.403   .     A
C317   O327    1.410   .     S
C318   C319    1.399   .     A
C318   H336    1.082   1_455 S
C319   H339    1.083   .     S
C320   O327    1.408   .     S
C320   H338    1.083   .     S
C320   C334    1.333   1_455 D
H321   C329    1.083   .     S
H322   C330    1.082   .     S
H323   C332    1.082   .     S
H324   C333    1.083   .     S
H325   C334    1.089   .     S
O326   C331    1.410   1_455 S
O326   C334    1.408   1_455 S
C328   C329    1.405   .     A
C328   C333    1.405   .     A
C329   C330    1.390   .     A
C330   C331    1.408   .     A
C331   O326    1.410   1_655 S
C331   C332    1.404   1_655 A
C332   C331    1.404   1_455 A
C332   C333    1.403   1_455 A
C333   C332    1.403   1_655 A
C334   C320    1.333   1_655 D
C334   O326    1.408   1_655 S
H336   C318    1.082   1_655 S
C340   C341    1.406   .     A
C340   C345    1.406   .     A
C341   C342    1.399   .     A
C341   H363    1.083   .     S
C342   C343    1.400   .     A
C342   H361    1.082   .     S
C343   O353    1.396   .     S
C343   C344    1.399   1_554 A
C344   H362    1.083   .     S
C344   C343    1.399   1_556 A
C344   C345    1.396   1_556 A
C345   C344    1.396   1_554 A
C345   H365    1.083   1_554 S
C346   O353    1.404   .     S
C346   H364    1.090   .     S
C346   C360    1.333   1_554 D
H347   C355    1.083   .     S
H348   C356    1.082   .     S
H349   C358    1.082   .     S
H350   C359    1.083   .     S
H351   C360    1.087   .     S
O352   C357    1.407   1_554 S
O352   C360    1.406   1_554 S
C354   C355    1.403   .     A
C354   C359    1.405   1_556 A
C355   C356    1.400   1_455 A
C356   C357    1.401   .     A
C356   C355    1.400   1_655 A
C357   O352    1.407   1_556 S
C357   C358    1.409   1_556 A
C358   C357    1.409   1_554 A
C358   C359    1.396   1_655 A
C359   C354    1.405   1_554 A
C359   C358    1.396   1_455 A
C360   C346    1.333   1_556 D
C360   O352    1.406   1_556 S
H365   C345    1.083   1_556 S
C366   C367    1.404   .     A
C366   C371    1.405   .     A
C367   C368    1.400   .     A
C367   H389    1.084   .     S
C368   C369    1.401   .     A
C368   H387    1.082   .     S
C369   C370    1.410   .     A
C369   O379    1.410   .     S
C370   C371    1.399   .     A
C370   H388    1.081   .     S
C371   H391    1.083   .     S
C372   O379    1.407   .     S
C372   C386    1.336   .     D
C372   H390    1.086   .     S
H373   C381    1.084   .     S
H374   C382    1.083   .     S
H375   C384    1.083   .     S
H376   C385    1.084   .     S
H377   C386    1.089   .     S
O378   C383    1.400   .     S
O378   C386    1.405   .     S
C380   C381    1.408   .     A
C380   C385    1.407   .     A
C381   C382    1.401   .     A
C382   C383    1.401   .     A
C383   C384    1.400   .     A
C384   C385    1.400   .     A
