data_lcy+N248+E161
_audit_creation_date              2025-01-21
_audit_creation_method            'Materials Studio'
_symmetry_space_group_name_H-M    'P1'
_symmetry_Int_Tables_number       1
_symmetry_cell_setting            triclinic
loop_
_symmetry_equiv_pos_as_xyz
  x,y,z
_cell_length_a                    39.3716
_cell_length_b                    39.3847
_cell_length_c                    39.7578
_cell_angle_alpha                 89.5101
_cell_angle_beta                  89.6138
_cell_angle_gamma                 89.1361
loop_
_atom_site_label
_atom_site_type_symbol
_atom_site_fract_x
_atom_site_fract_y
_atom_site_fract_z
_atom_site_U_iso_or_equiv
_atom_site_adp_type
_atom_site_occupancy
O0     O     0.14517   0.64216   0.92233   0.00000  Uiso   1.00
Yb1    Yb    0.14706   0.59098   0.85257   0.00000  Uiso   1.00
C2     C     0.18521   0.56923   0.80599   0.00000  Uiso   1.00
Yb3    Yb    0.09894   0.61635   0.90502   0.00000  Uiso   1.00
O4     O     0.18195   0.62179   0.88109   0.00000  Uiso   1.00
C5     C     0.08910   0.64576   0.84736   0.00000  Uiso   1.00
C6     C     0.17504   0.64082   0.90729   0.00000  Uiso   1.00
O7     O     0.06808   0.65831   0.91953   0.00000  Uiso   1.00
C8     C     0.05353   0.64153   0.94276   0.00000  Uiso   1.00
O9     O     0.17969   0.57593   0.89518   0.00000  Uiso   1.00
O10    O     0.12609   0.56943   0.89805   0.00000  Uiso   1.00
O11    O     0.10287   0.56780   0.83369   0.00000  Uiso   1.00
O12    O     0.06529   0.61141   0.94755   0.00000  Uiso   1.00
O13    O     0.06447   0.58473   0.87462   0.00000  Uiso   1.00
C14    C     0.15707   0.56588   0.91345   0.00000  Uiso   1.00
C15    C     0.07310   0.56704   0.84788   0.00000  Uiso   1.00
O16    O     0.17789   0.55131   0.83196   0.00000  Uiso   1.00
O17    O     0.17389   0.59984   0.80660   0.00000  Uiso   1.00
O18    O     0.06667   0.63192   0.86302   0.00000  Uiso   1.00
O19    O     0.12052   0.63838   0.86120   0.00000  Uiso   1.00
O20    O     0.66469   0.93344   0.10067   0.00000  Uiso   1.00
Yb21   Yb    0.60199   0.87655   0.09691   0.00000  Uiso   1.00
C22    C     0.55784   0.85084   0.05915   0.00000  Uiso   1.00
Yb23   Yb    0.64937   0.90251   0.14441   0.00000  Uiso   1.00
O24    O     0.62640   0.91089   0.06321   0.00000  Uiso   1.00
C25    C     0.59935   0.94279   0.15502   0.00000  Uiso   1.00
C26    C     0.65255   0.92939   0.07024   0.00000  Uiso   1.00
O27    O     0.65792   0.93876   0.18357   0.00000  Uiso   1.00
C28    C     0.68761   0.92720   0.19058   0.00000  Uiso   1.00
O29    O     0.62646   0.83368   0.07144   0.00000  Uiso   1.00
O30    O     0.65318   0.86354   0.10935   0.00000  Uiso   1.00
O31    O     0.58742   0.84557   0.13799   0.00000  Uiso   1.00
O32    O     0.69757   0.90283   0.17154   0.00000  Uiso   1.00
O33    O     0.62552   0.86471   0.17704   0.00000  Uiso   1.00
C34    C     0.65375   0.83806   0.08586   0.00000  Uiso   1.00
C35    C     0.60157   0.84446   0.16725   0.00000  Uiso   1.00
O36    O     0.58852   0.83919   0.05994   0.00000  Uiso   1.00
O37    O     0.55263   0.87772   0.07613   0.00000  Uiso   1.00
O38    O     0.62617   0.94387   0.17036   0.00000  Uiso   1.00
O39    O     0.59792   0.91746   0.13096   0.00000  Uiso   1.00
O40    O     0.91102   0.14388   0.68837   0.00000  Uiso   1.00
Yb41   Yb    0.85095   0.15734   0.62987   0.00000  Uiso   1.00
C42    C     0.81050   0.19884   0.60562   0.00000  Uiso   1.00
Yb43   Yb    0.89527   0.10397   0.65395   0.00000  Uiso   1.00
O44    O     0.87488   0.18644   0.66837   0.00000  Uiso   1.00
C45    C     0.84261   0.09473   0.69063   0.00000  Uiso   1.00
C46    C     0.89925   0.17522   0.68774   0.00000  Uiso   1.00
O47    O     0.90083   0.06247   0.68904   0.00000  Uiso   1.00
C48    C     0.93072   0.05509   0.67831   0.00000  Uiso   1.00
O49    O     0.87771   0.18492   0.59004   0.00000  Uiso   1.00
O50    O     0.90044   0.14244   0.61750   0.00000  Uiso   1.00
O51    O     0.83583   0.11950   0.59600   0.00000  Uiso   1.00
O52    O     0.94176   0.07434   0.65464   0.00000  Uiso   1.00
O53    O     0.87027   0.07551   0.61431   0.00000  Uiso   1.00
C54    C     0.90383   0.16790   0.59339   0.00000  Uiso   1.00
C55    C     0.84723   0.08853   0.59423   0.00000  Uiso   1.00
O56    O     0.84152   0.19790   0.59535   0.00000  Uiso   1.00
O57    O     0.80333   0.18116   0.63161   0.00000  Uiso   1.00
O58    O     0.86810   0.07661   0.69257   0.00000  Uiso   1.00
O59    O     0.84430   0.12040   0.66693   0.00000  Uiso   1.00
O60    O     0.39045   0.33723   0.40626   0.00000  Uiso   1.00
Yb61   Yb    0.40094   0.39446   0.34393   0.00000  Uiso   1.00
C62    C     0.44154   0.43837   0.32073   0.00000  Uiso   1.00
Yb63   Yb    0.35021   0.34976   0.36941   0.00000  Uiso   1.00
O64    O     0.43061   0.37354   0.38381   0.00000  Uiso   1.00
C65    C     0.33652   0.40300   0.40413   0.00000  Uiso   1.00
C66    C     0.42113   0.35012   0.40514   0.00000  Uiso   1.00
O67    O     0.30751   0.34587   0.40359   0.00000  Uiso   1.00
C68    C     0.30134   0.31520   0.39620   0.00000  Uiso   1.00
O69    O     0.43140   0.36770   0.30653   0.00000  Uiso   1.00
O70    O     0.39055   0.34190   0.33453   0.00000  Uiso   1.00
O71    O     0.36267   0.40736   0.30851   0.00000  Uiso   1.00
O72    O     0.32161   0.30265   0.37403   0.00000  Uiso   1.00
O73    O     0.32134   0.37129   0.32777   0.00000  Uiso   1.00
C74    C     0.41755   0.34037   0.31180   0.00000  Uiso   1.00
C75    C     0.33256   0.39472   0.30737   0.00000  Uiso   1.00
O76    O     0.44268   0.40744   0.31050   0.00000  Uiso   1.00
O77    O     0.42051   0.44435   0.34440   0.00000  Uiso   1.00
O78    O     0.31883   0.37792   0.40324   0.00000  Uiso   1.00
O79    O     0.36372   0.40198   0.38160   0.00000  Uiso   1.00
H80    H     0.24140   0.62939   0.89475   0.00000  Uiso   1.00
C81    C     0.52955   0.83358   0.04231   0.00000  Uiso   1.00
C82    C     0.49610   0.83959   0.05353   0.00000  Uiso   1.00
C83    C     0.46881   0.82203   0.03986   0.00000  Uiso   1.00
C84    C     0.47475   0.79873   0.01361   0.00000  Uiso   1.00
C85    C     0.50836   0.79244   1.00224   0.00000  Uiso   1.00
C86    C     0.53552   0.80967   1.01698   0.00000  Uiso   1.00
C87    C     0.43349   0.82757   0.05385   0.00000  Uiso   1.00
C88    C     0.51549   0.76738   0.97471   0.00000  Uiso   1.00
C89    C     0.42756   0.79814   0.97460   0.00000  Uiso   1.00
C90    C     0.39612   0.78522   0.96443   0.00000  Uiso   1.00
C91    C     0.38432   0.75508   0.97944   0.00000  Uiso   1.00
C92    C     0.40458   0.73769   0.00329   0.00000  Uiso   1.00
C93    C     0.43595   0.75141   0.01244   0.00000  Uiso   1.00
C94    C     0.37578   0.80219   0.94046   0.00000  Uiso   1.00
C95    C     0.34413   0.78939   0.93156   0.00000  Uiso   1.00
C96    C     0.33195   0.75949   0.94664   0.00000  Uiso   1.00
C97    C     0.35205   0.74247   0.97087   0.00000  Uiso   1.00
C98    C     0.33995   0.71284   0.98660   0.00000  Uiso   1.00
C99    C     0.36048   0.69552   0.01009   0.00000  Uiso   1.00
C100   C     0.39254   0.70765   0.01814   0.00000  Uiso   1.00
C101   C     0.30045   0.74566   0.93772   0.00000  Uiso   1.00
C102   C     0.30783   0.70079   0.97789   0.00000  Uiso   1.00
C103   C     0.25987   0.69938   0.94039   0.00000  Uiso   1.00
C104   C     0.21899   0.74061   0.97014   0.00000  Uiso   1.00
C105   C     0.19874   0.68934   0.94022   0.00000  Uiso   1.00
C106   C     0.29982   0.66092   0.90707   0.00000  Uiso   1.00
C107   C     0.23701   0.65158   0.91020   0.00000  Uiso   1.00
C108   C     0.26485   0.67082   0.91963   0.00000  Uiso   1.00
C109   C     0.22640   0.70912   0.95011   0.00000  Uiso   1.00
C110   C     0.20382   0.66054   0.92028   0.00000  Uiso   1.00
H111   H     0.31587   0.65207   0.92832   0.00000  Uiso   1.00
N112   N     0.44628   0.78168   0.99891   0.00000  Uiso   1.00
N113   N     0.28928   0.71652   0.95304   0.00000  Uiso   1.00
H114   H     0.31192   0.68309   0.89468   0.00000  Uiso   1.00
H115   H     0.49129   0.85733   0.07377   0.00000  Uiso   1.00
H116   H     0.56133   0.80456   1.00867   0.00000  Uiso   1.00
H117   H     0.43307   0.84607   0.07478   0.00000  Uiso   1.00
H118   H     0.41638   0.83738   0.03381   0.00000  Uiso   1.00
H119   H     0.42351   0.80318   0.06371   0.00000  Uiso   1.00
H120   H     0.50150   0.77513   0.95169   0.00000  Uiso   1.00
H121   H     0.54302   0.76599   0.96841   0.00000  Uiso   1.00
H122   H     0.50735   0.74171   0.98282   0.00000  Uiso   1.00
O123   O     0.45550   0.73526   0.03634   0.00000  Uiso   1.00
O124   O     0.43881   0.82822   0.96124   0.00000  Uiso   1.00
H125   H     0.38418   0.82548   0.92859   0.00000  Uiso   1.00
H126   H     0.40766   0.69360   0.03633   0.00000  Uiso   1.00
H127   H     0.32920   0.80310   0.91297   0.00000  Uiso   1.00
H128   H     0.20446   0.73389   0.99320   0.00000  Uiso   1.00
H129   H     0.24231   0.75386   0.97774   0.00000  Uiso   1.00
H130   H     0.17317   0.69690   0.94752   0.00000  Uiso   1.00
H131   H     0.35193   0.67240   0.02217   0.00000  Uiso   1.00
H132   H     0.29892   0.64015   0.88838   0.00000  Uiso   1.00
O133   O     0.29561   0.67208   0.99332   0.00000  Uiso   1.00
O134   O     0.28132   0.76088   0.91294   0.00000  Uiso   1.00
H135   H     0.20339   0.75848   0.95468   0.00000  Uiso   1.00
H136   H     0.58834   0.99912   0.12076   0.00000  Uiso   1.00
C137   C     0.43077   0.30730   0.29955   0.00000  Uiso   1.00
C138   C     0.42980   0.27924   0.32151   0.00000  Uiso   1.00
C139   C     0.44344   0.24759   0.31209   0.00000  Uiso   1.00
C140   C     0.45707   0.24344   0.27947   0.00000  Uiso   1.00
C141   C     0.45785   0.27151   0.25701   0.00000  Uiso   1.00
C142   C     0.44517   0.30343   0.26744   0.00000  Uiso   1.00
C143   C     0.44406   0.21872   0.33714   0.00000  Uiso   1.00
C144   C     0.47211   0.26731   0.22204   0.00000  Uiso   1.00
C145   C     0.44692   0.18789   0.25581   0.00000  Uiso   1.00
C146   C     0.45848   0.15648   0.24325   0.00000  Uiso   1.00
C147   C     0.49341   0.14839   0.24461   0.00000  Uiso   1.00
C148   C     0.51610   0.17147   0.25884   0.00000  Uiso   1.00
C149   C     0.50338   0.20270   0.27088   0.00000  Uiso   1.00
C150   C     0.43608   0.13327   0.22896   0.00000  Uiso   1.00
C151   C     0.44828   0.10275   0.21552   0.00000  Uiso   1.00
C152   C     0.48309   0.09461   0.21639   0.00000  Uiso   1.00
C153   C     0.50571   0.11728   0.23139   0.00000  Uiso   1.00
C154   C     0.54060   0.10903   0.23296   0.00000  Uiso   1.00
C155   C     0.56298   0.13203   0.24759   0.00000  Uiso   1.00
C156   C     0.55088   0.16297   0.26027   0.00000  Uiso   1.00
C157   C     0.49597   0.06444   0.20239   0.00000  Uiso   1.00
C158   C     0.55217   0.07803   0.21952   0.00000  Uiso   1.00
C159   C     0.54253   0.02604   0.18900   0.00000  Uiso   1.00
C160   C     0.52201   0.99112   0.23977   0.00000  Uiso   1.00
C161   C     0.55488   0.96550   0.19231   0.00000  Uiso   1.00
C162   C     0.56381   0.06053   0.13889   0.00000  Uiso   1.00
C163   C     0.57360   0.99791   0.14386   0.00000  Uiso   1.00
C164   C     0.55913   0.02743   0.15733   0.00000  Uiso   1.00
C165   C     0.53944   0.99451   0.20607   0.00000  Uiso   1.00
C166   C     0.57272   0.96752   0.16186   0.00000  Uiso   1.00
H167   H     0.58057   0.07714   0.15361   0.00000  Uiso   1.00
N168   N     0.46940   0.21050   0.26877   0.00000  Uiso   1.00
N169   N     0.52992   0.05682   0.20410   0.00000  Uiso   1.00
H170   H     0.53884   0.07333   0.13507   0.00000  Uiso   1.00
H171   H     0.41937   0.28241   0.34662   0.00000  Uiso   1.00
H172   H     0.44613   0.32506   0.25048   0.00000  Uiso   1.00
H173   H     0.43258   0.22623   0.36163   0.00000  Uiso   1.00
H174   H     0.42964   0.19698   0.32733   0.00000  Uiso   1.00
H175   H     0.47073   0.21049   0.34179   0.00000  Uiso   1.00
H176   H     0.45836   0.24695   0.20887   0.00000  Uiso   1.00
H177   H     0.46954   0.29102   0.20697   0.00000  Uiso   1.00
H178   H     0.49946   0.26022   0.22335   0.00000  Uiso   1.00
O179   O     0.52517   0.22566   0.28446   0.00000  Uiso   1.00
O180   O     0.41296   0.19618   0.25458   0.00000  Uiso   1.00
H181   H     0.40906   0.13871   0.22775   0.00000  Uiso   1.00
H182   H     0.56891   0.18026   0.27101   0.00000  Uiso   1.00
H183   H     0.43039   0.08559   0.20436   0.00000  Uiso   1.00
H184   H     0.54003   0.97994   0.25833   0.00000  Uiso   1.00
H185   H     0.51278   0.01574   0.24979   0.00000  Uiso   1.00
H186   H     0.55496   0.94177   0.20643   0.00000  Uiso   1.00
H187   H     0.58997   0.12638   0.24896   0.00000  Uiso   1.00
H188   H     0.57595   0.05664   0.11386   0.00000  Uiso   1.00
O189   O     0.58595   0.06909   0.22162   0.00000  Uiso   1.00
O190   O     0.47443   0.04246   0.18691   0.00000  Uiso   1.00
H191   H     0.49997   0.97404   0.23749   0.00000  Uiso   1.00
H192   H     0.47492   0.38501   0.42504   0.00000  Uiso   1.00
C193   C     0.78357   0.21399   0.58588   0.00000  Uiso   1.00
C194   C     0.75814   0.19254   0.57469   0.00000  Uiso   1.00
C195   C     0.73078   0.20563   0.55659   0.00000  Uiso   1.00
C196   C     0.72888   0.24086   0.55017   0.00000  Uiso   1.00
C197   C     0.75516   0.26235   0.56060   0.00000  Uiso   1.00
C198   C     0.78275   0.24851   0.57827   0.00000  Uiso   1.00
C199   C     0.70322   0.18225   0.54524   0.00000  Uiso   1.00
C200   C     0.75325   0.29990   0.55393   0.00000  Uiso   1.00
C201   C     0.67187   0.26168   0.55808   0.00000  Uiso   1.00
C202   C     0.63997   0.27094   0.54550   0.00000  Uiso   1.00
C203   C     0.63570   0.27361   0.51044   0.00000  Uiso   1.00
C204   C     0.66350   0.26765   0.48861   0.00000  Uiso   1.00
C205   C     0.69502   0.25844   0.50243   0.00000  Uiso   1.00
C206   C     0.61218   0.27679   0.56708   0.00000  Uiso   1.00
C207   C     0.58043   0.28548   0.55400   0.00000  Uiso   1.00
C208   C     0.57580   0.28819   0.51907   0.00000  Uiso   1.00
C209   C     0.60347   0.28195   0.49720   0.00000  Uiso   1.00
C210   C     0.59897   0.28395   0.46214   0.00000  Uiso   1.00
C211   C     0.62690   0.27816   0.44058   0.00000  Uiso   1.00
C212   C     0.65889   0.27026   0.45370   0.00000  Uiso   1.00
C213   C     0.54421   0.29739   0.50536   0.00000  Uiso   1.00
C214   C     0.56661   0.29214   0.44959   0.00000  Uiso   1.00
C215   C     0.50862   0.31211   0.45778   0.00000  Uiso   1.00
C216   C     0.48185   0.25387   0.46497   0.00000  Uiso   1.00
C217   C     0.45046   0.30350   0.43885   0.00000  Uiso   1.00
C218   C     0.53581   0.36983   0.45143   0.00000  Uiso   1.00
C219   C     0.47610   0.35878   0.43344   0.00000  Uiso   1.00
C220   C     0.50610   0.34645   0.44786   0.00000  Uiso   1.00
C221   C     0.48038   0.29061   0.45403   0.00000  Uiso   1.00
C222   C     0.44845   0.33747   0.42778   0.00000  Uiso   1.00
H223   H     0.55691   0.36136   0.43470   0.00000  Uiso   1.00
N224   N     0.69827   0.25501   0.53650   0.00000  Uiso   1.00
N225   N     0.54026   0.29942   0.47121   0.00000  Uiso   1.00
H226   H     0.54469   0.36962   0.47786   0.00000  Uiso   1.00
H227   H     0.75964   0.16555   0.58039   0.00000  Uiso   1.00
H228   H     0.80284   0.26453   0.58724   0.00000  Uiso   1.00
H229   H     0.70916   0.15528   0.55154   0.00000  Uiso   1.00
H230   H     0.67881   0.18918   0.55773   0.00000  Uiso   1.00
H231   H     0.70024   0.18429   0.51754   0.00000  Uiso   1.00
H232   H     0.73029   0.31082   0.56634   0.00000  Uiso   1.00
H233   H     0.77587   0.31299   0.56377   0.00000  Uiso   1.00
H234   H     0.75191   0.30465   0.52643   0.00000  Uiso   1.00
O235   O     0.72230   0.25161   0.48174   0.00000  Uiso   1.00
O236   O     0.67634   0.25793   0.59216   0.00000  Uiso   1.00
H237   H     0.61487   0.27456   0.59411   0.00000  Uiso   1.00
H238   H     0.67991   0.26596   0.43644   0.00000  Uiso   1.00
H239   H     0.55955   0.28990   0.57135   0.00000  Uiso   1.00
H240   H     0.47649   0.23726   0.44330   0.00000  Uiso   1.00
H241   H     0.50705   0.24616   0.47500   0.00000  Uiso   1.00
H242   H     0.42955   0.28663   0.43419   0.00000  Uiso   1.00
H243   H     0.62419   0.27985   0.41353   0.00000  Uiso   1.00
H244   H     0.52903   0.39642   0.44438   0.00000  Uiso   1.00
O245   O     0.56158   0.29377   0.41548   0.00000  Uiso   1.00
O246   O     0.51733   0.30498   0.52628   0.00000  Uiso   1.00
H247   H     0.46270   0.24941   0.48508   0.00000  Uiso   1.00
H248   H     0.68723   0.98898   0.06556   0.00000  Uiso   1.00
C249   C     0.81407   0.09102   0.71317   0.00000  Uiso   1.00
C250   C     0.79120   0.06464   0.70914   0.00000  Uiso   1.00
C251   C     0.77073   0.05467   0.73627   0.00000  Uiso   1.00
C252   C     0.77466   0.07080   0.76755   0.00000  Uiso   1.00
C253   C     0.79607   0.09901   0.77048   0.00000  Uiso   1.00
C254   C     0.81473   0.10964   0.74260   0.00000  Uiso   1.00
C255   C     0.74745   0.02495   0.73284   0.00000  Uiso   1.00
C256   C     0.80262   0.11484   0.80414   0.00000  Uiso   1.00
C257   C     0.78057   0.02927   0.81166   0.00000  Uiso   1.00
C258   C     0.77053   0.01511   0.84241   0.00000  Uiso   1.00
C259   C     0.74079   0.02767   0.85808   0.00000  Uiso   1.00
C260   C     0.72135   0.05369   0.84254   0.00000  Uiso   1.00
C261   C     0.73254   0.06720   0.81181   0.00000  Uiso   1.00
C262   C     0.78968   0.98913   0.85796   0.00000  Uiso   1.00
C263   C     0.77980   0.97622   0.88924   0.00000  Uiso   1.00
C264   C     0.75040   0.98886   0.90534   0.00000  Uiso   1.00
C265   C     0.73056   0.01431   0.88944   0.00000  Uiso   1.00
C266   C     0.70043   0.02635   0.90478   0.00000  Uiso   1.00
C267   C     0.68105   0.05201   0.88891   0.00000  Uiso   1.00
C268   C     0.69157   0.06575   0.85820   0.00000  Uiso   1.00
C269   C     0.74000   0.97649   0.93688   0.00000  Uiso   1.00
C270   C     0.69030   0.01212   0.93557   0.00000  Uiso   1.00
C271   C     0.69810   0.97250   0.98169   0.00000  Uiso   1.00
C272   C     0.67920   0.92090   0.94827   0.00000  Uiso   1.00
C273   C     0.66954   0.92639   0.01017   0.00000  Uiso   1.00
C274   C     0.71598   0.02444   0.01395   0.00000  Uiso   1.00
C275   C     0.68638   0.97544   0.04200   0.00000  Uiso   1.00
C276   C     0.70014   0.98996   0.01258   0.00000  Uiso   1.00
C277   C     0.68286   0.94036   0.98061   0.00000  Uiso   1.00
C278   C     0.67010   0.94419   0.04071   0.00000  Uiso   1.00
H279   H     0.70047   0.04299   0.99926   0.00000  Uiso   1.00
N280   N     0.76178   0.05504   0.79738   0.00000  Uiso   1.00
N281   N     0.71021   0.98797   0.95110   0.00000  Uiso   1.00
H282   H     0.74206   0.02329   0.00318   0.00000  Uiso   1.00
H283   H     0.79083   0.05066   0.68580   0.00000  Uiso   1.00
H284   H     0.83248   0.13028   0.74493   0.00000  Uiso   1.00
H285   H     0.74515   0.01703   0.70620   0.00000  Uiso   1.00
H286   H     0.75749   0.00307   0.74764   0.00000  Uiso   1.00
H287   H     0.72170   0.03184   0.74232   0.00000  Uiso   1.00
H288   H     0.81487   0.09566   0.82095   0.00000  Uiso   1.00
H289   H     0.81996   0.13675   0.80182   0.00000  Uiso   1.00
H290   H     0.77846   0.12392   0.81571   0.00000  Uiso   1.00
O291   O     0.71460   0.09315   0.79653   0.00000  Uiso   1.00
O292   O     0.80993   0.01799   0.79625   0.00000  Uiso   1.00
H293   H     0.81243   0.97884   0.84613   0.00000  Uiso   1.00
H294   H     0.67631   0.08579   0.84677   0.00000  Uiso   1.00
H295   H     0.79516   0.95625   0.90061   0.00000  Uiso   1.00
H296   H     0.65219   0.91414   0.94465   0.00000  Uiso   1.00
H297   H     0.68708   0.93555   0.92567   0.00000  Uiso   1.00
H298   H     0.65805   0.90155   0.00910   0.00000  Uiso   1.00
H299   H     0.65784   0.06173   0.90026   0.00000  Uiso   1.00
H300   H     0.71752   0.03378   0.04015   0.00000  Uiso   1.00
O301   O     0.65988   0.02191   0.94983   0.00000  Uiso   1.00
O302   O     0.75915   0.95201   0.95304   0.00000  Uiso   1.00
H303   H     0.69484   0.89722   0.94937   0.00000  Uiso   1.00
H304   H     0.67326   0.98435   0.22489   0.00000  Uiso   1.00
C305   C     0.83361   0.06860   0.56616   0.00000  Uiso   1.00
C306   C     0.85384   0.04451   0.54948   0.00000  Uiso   1.00
C307   C     0.84413   0.03233   0.51787   0.00000  Uiso   1.00
C308   C     0.81341   0.04402   0.50311   0.00000  Uiso   1.00
C309   C     0.79236   0.06722   0.52071   0.00000  Uiso   1.00
C310   C     0.80236   0.07874   0.55222   0.00000  Uiso   1.00
C311   C     0.86754   0.00856   0.49919   0.00000  Uiso   1.00
C312   C     0.76029   0.08138   0.50535   0.00000  Uiso   1.00
C313   C     0.78482   0.00291   0.46875   0.00000  Uiso   1.00
C314   C     0.77334   0.99059   0.43575   0.00000  Uiso   1.00
C315   C     0.78227   0.00905   0.40675   0.00000  Uiso   1.00
C316   C     0.80138   0.03887   0.40974   0.00000  Uiso   1.00
C317   C     0.81148   0.04995   0.44194   0.00000  Uiso   1.00
C318   C     0.75386   0.96129   0.43293   0.00000  Uiso   1.00
C319   C     0.74324   0.95032   0.40140   0.00000  Uiso   1.00
C320   C     0.75218   0.96830   0.37200   0.00000  Uiso   1.00
C321   C     0.77191  -0.00231   0.37468   0.00000  Uiso   1.00
C322   C     0.78116   0.01576   0.34541   0.00000  Uiso   1.00
C323   C     0.80011   0.04557   0.34859   0.00000  Uiso   1.00
C324   C     0.80990   0.05707   0.38032   0.00000  Uiso   1.00
C325   C     0.74155   0.95782   0.33998   0.00000  Uiso   1.00
C326   C     0.77088   0.00365   0.31374   0.00000  Uiso   1.00
C327   C     0.73785   0.96498   0.27913   0.00000  Uiso   1.00
C328   C     0.78008   0.91499   0.27656   0.00000  Uiso   1.00
C329   C     0.73497   0.92372   0.23326   0.00000  Uiso   1.00
C330   C     0.69549   0.01426   0.28118   0.00000  Uiso   1.00
C331   C     0.69505   0.97081   0.23517   0.00000  Uiso   1.00
C332   C     0.71009   0.98290   0.26465   0.00000  Uiso   1.00
C333   C     0.75051   0.93531   0.26287   0.00000  Uiso   1.00
C334   C     0.70693   0.94104   0.21944   0.00000  Uiso   1.00
H335   H     0.71470   0.03457   0.28140   0.00000  Uiso   1.00
N336   N     0.80326   0.03194   0.47050   0.00000  Uiso   1.00
N337   N     0.75093   0.97542   0.31152   0.00000  Uiso   1.00
H338   H     0.68768   0.00834   0.30745   0.00000  Uiso   1.00
H339   H     0.87805   0.03689   0.56021   0.00000  Uiso   1.00
H340   H     0.78646   0.09719   0.56531   0.00000  Uiso   1.00
H341   H     0.89033   0.00170   0.51425   0.00000  Uiso   1.00
H342   H     0.85409   0.98487   0.49308   0.00000  Uiso   1.00
H343   H     0.87616   0.02101   0.47554   0.00000  Uiso   1.00
H344   H     0.74316   0.06046   0.49857   0.00000  Uiso   1.00
H345   H     0.74638   0.09851   0.52295   0.00000  Uiso   1.00
H346   H     0.76674   0.09636   0.48247   0.00000  Uiso   1.00
O347   O     0.82976   0.07920   0.44464   0.00000  Uiso   1.00
O348   O     0.77673   0.98522   0.49751   0.00000  Uiso   1.00
H349   H     0.74671   0.94690   0.45513   0.00000  Uiso   1.00
H350   H     0.82423   0.08028   0.38168   0.00000  Uiso   1.00
H351   H     0.72808   0.92767   0.40017   0.00000  Uiso   1.00
H352   H     0.80049   0.91360   0.25719   0.00000  Uiso   1.00
H353   H     0.79097   0.92623   0.29949   0.00000  Uiso   1.00
H354   H     0.74411   0.90046   0.22170   0.00000  Uiso   1.00
H355   H     0.80722   0.06032   0.32661   0.00000  Uiso   1.00
H356   H     0.67289   0.02437   0.26760   0.00000  Uiso   1.00
O357   O     0.78067   0.02045   0.28497   0.00000  Uiso   1.00
O358   O     0.72127   0.92993   0.33731   0.00000  Uiso   1.00
H359   H     0.77179   0.88884   0.28278   0.00000  Uiso   1.00
H360   H     0.19536   0.59907   0.74507   0.00000  Uiso   1.00
C361   C     0.33473   0.42313   0.43466   0.00000  Uiso   1.00
C362   C     0.33577   0.40339   0.46392   0.00000  Uiso   1.00
C363   C     0.32442   0.41608   0.49438   0.00000  Uiso   1.00
C364   C     0.31442   0.45045   0.49646   0.00000  Uiso   1.00
C365   C     0.31545   0.47157   0.46735   0.00000  Uiso   1.00
C366   C     0.32510   0.45743   0.43607   0.00000  Uiso   1.00
C367   C     0.32065   0.39183   0.52360   0.00000  Uiso   1.00
C368   C     0.30496   0.50840   0.46947   0.00000  Uiso   1.00
C369   C     0.32547   0.47077   0.55242   0.00000  Uiso   1.00
C370   C     0.31450   0.47909   0.58503   0.00000  Uiso   1.00
C371   C     0.27944   0.47960   0.59232   0.00000  Uiso   1.00
C372   C     0.25600   0.47164   0.56705   0.00000  Uiso   1.00
C373   C     0.26817   0.46347   0.53479   0.00000  Uiso   1.00
C374   C     0.33767   0.48667   0.61050   0.00000  Uiso   1.00
C375   C     0.32613   0.49571   0.64257   0.00000  Uiso   1.00
C376   C     0.29117   0.49703   0.64995   0.00000  Uiso   1.00
C377   C     0.26778   0.48827   0.62490   0.00000  Uiso   1.00
C378   C     0.23274   0.48866   0.63223   0.00000  Uiso   1.00
C379   C     0.20963   0.48003   0.60700   0.00000  Uiso   1.00
C380   C     0.22113   0.47174   0.57473   0.00000  Uiso   1.00
C381   C     0.27883   0.50777   0.68147   0.00000  Uiso   1.00
C382   C     0.22168   0.49863   0.66441   0.00000  Uiso   1.00
C383   C     0.23208   0.52476   0.71836   0.00000  Uiso   1.00
C384   C     0.24508   0.47083   0.75262   0.00000  Uiso   1.00
C385   C     0.21658   0.52162   0.77774   0.00000  Uiso   1.00
C386   C     0.22169   0.57919   0.68518   0.00000  Uiso   1.00
C387   C     0.20563   0.57341   0.74633   0.00000  Uiso   1.00
C388   C     0.21981   0.55869   0.71730   0.00000  Uiso   1.00
C389   C     0.23112   0.50644   0.74913   0.00000  Uiso   1.00
C390   C     0.20350   0.55491   0.77656   0.00000  Uiso   1.00
H391   H     0.20531   0.56788   0.66576   0.00000  Uiso   1.00
N392   N     0.30234   0.46318   0.52815   0.00000  Uiso   1.00
N393   N     0.24458   0.50917   0.68783   0.00000  Uiso   1.00
H394   H     0.24832   0.57950   0.67579   0.00000  Uiso   1.00
H395   H     0.34270   0.37665   0.46234   0.00000  Uiso   1.00
H396   H     0.32374   0.47254   0.41318   0.00000  Uiso   1.00
H397   H     0.32951   0.36576   0.51697   0.00000  Uiso   1.00
H398   H     0.33580   0.40038   0.54519   0.00000  Uiso   1.00
H399   H     0.29345   0.39028   0.53079   0.00000  Uiso   1.00
H400   H     0.32024   0.52114   0.48890   0.00000  Uiso   1.00
H401   H     0.30877   0.52196   0.44514   0.00000  Uiso   1.00
H402   H     0.27769   0.51044   0.47647   0.00000  Uiso   1.00
O403   O     0.24577   0.45477   0.51008   0.00000  Uiso   1.00
O404   O     0.35959   0.46926   0.54507   0.00000  Uiso   1.00
H405   H     0.36479   0.48595   0.60565   0.00000  Uiso   1.00
H406   H     0.20260   0.46558   0.55579   0.00000  Uiso   1.00
H407   H     0.34469   0.50190   0.66143   0.00000  Uiso   1.00
H408   H     0.22472   0.45371   0.76159   0.00000  Uiso   1.00
H409   H     0.25543   0.46068   0.72870   0.00000  Uiso   1.00
H410   H     0.21501   0.50708   0.80095   0.00000  Uiso   1.00
H411   H     0.18254   0.48016   0.61192   0.00000  Uiso   1.00
H412   H     0.21310   0.60588   0.68893   0.00000  Uiso   1.00
O413   O     0.18759   0.49919   0.67192   0.00000  Uiso   1.00
O414   O     0.30117   0.51792   0.70562   0.00000  Uiso   1.00
H415   H     0.26582   0.47056   0.77143   0.00000  Uiso   1.00
H416   H     0.32189   0.46017   0.29199   0.00000  Uiso   1.00
C417   C     0.16297   0.55198   0.94775   0.00000  Uiso   1.00
C418   C     0.15384   0.51864   0.95624   0.00000  Uiso   1.00
C419   C     0.16425   0.50376   0.98699   0.00000  Uiso   1.00
C420   C     0.18292   0.52302   0.01013   0.00000  Uiso   1.00
C421   C     0.19033   0.55720   0.00243   0.00000  Uiso   1.00
C422   C     0.18059   0.57122   0.97126   0.00000  Uiso   1.00
C423   C     0.15669   0.46710   0.99449   0.00000  Uiso   1.00
C424   C     0.20964   0.57835   0.02697   0.00000  Uiso   1.00
C425   C     0.22728   0.49189   0.04013   0.00000  Uiso   1.00
C426   C     0.24206   0.47948   0.07005   0.00000  Uiso   1.00
C427   C     0.22401   0.48304   0.10055   0.00000  Uiso   1.00
C428   C     0.19154   0.49858   0.10068   0.00000  Uiso   1.00
C429   C     0.17788   0.51078   0.07016   0.00000  Uiso   1.00
C430   C     0.27455   0.46412   0.07028   0.00000  Uiso   1.00
C431   C     0.28906   0.45278   0.10043   0.00000  Uiso   1.00
C432   C     0.27125   0.45618   0.13099   0.00000  Uiso   1.00
C433   C     0.23852   0.47116   0.13101   0.00000  Uiso   1.00
C434   C     0.22027   0.47435   0.16144   0.00000  Uiso   1.00
C435   C     0.18795   0.48989   0.16133   0.00000  Uiso   1.00
C436   C     0.17377   0.50196   0.13131   0.00000  Uiso   1.00
C437   C     0.28518   0.44480   0.16163   0.00000  Uiso   1.00
C438   C     0.23480   0.46170   0.19126   0.00000  Uiso   1.00
C439   C     0.28068   0.43407   0.22177   0.00000  Uiso   1.00
C440   C     0.26777   0.37322   0.20401   0.00000  Uiso   1.00
C441   C     0.29555   0.38616   0.25826   0.00000  Uiso   1.00
C442   C     0.29525   0.49424   0.23886   0.00000  Uiso   1.00
C443   C     0.30987   0.44323   0.27445   0.00000  Uiso   1.00
C444   C     0.29478   0.45648   0.24530   0.00000  Uiso   1.00
C445   C     0.28100   0.39865   0.22850   0.00000  Uiso   1.00
C446   C     0.31074   0.40818   0.28068   0.00000  Uiso   1.00
H447   H     0.26892   0.50460   0.23778   0.00000  Uiso   1.00
N448   N     0.19596   0.50763   0.04072   0.00000  Uiso   1.00
N449   N     0.26665   0.44728   0.19086   0.00000  Uiso   1.00
H450   H     0.30846   0.49963   0.21468   0.00000  Uiso   1.00
H451   H     0.14012   0.50369   0.93821   0.00000  Uiso   1.00
H452   H     0.18711   0.59714   0.96510   0.00000  Uiso   1.00
H453   H     0.14170   0.45548   0.97414   0.00000  Uiso   1.00
H454   H     0.18086   0.45241  -0.00298   0.00000  Uiso   1.00
H455   H     0.14204   0.46502   0.01835   0.00000  Uiso   1.00
H456   H     0.23503   0.56662   0.03153   0.00000  Uiso   1.00
H457   H     0.21329   0.60462   0.01742   0.00000  Uiso   1.00
H458   H     0.19552   0.57982   0.05120   0.00000  Uiso   1.00
O459   O     0.14654   0.52652   0.06999   0.00000  Uiso   1.00
O460   O     0.24470   0.48885   0.01026   0.00000  Uiso   1.00
H461   H     0.28898   0.46098   0.04720   0.00000  Uiso   1.00
H462   H     0.14887   0.51398   0.13226   0.00000  Uiso   1.00
H463   H     0.31421   0.44124   0.09969   0.00000  Uiso   1.00
H464   H     0.24870   0.35701   0.21676   0.00000  Uiso   1.00
H465   H     0.25562   0.38516   0.18173   0.00000  Uiso   1.00
H466   H     0.29685   0.35901   0.26289   0.00000  Uiso   1.00
H467   H     0.17358   0.49292   0.18447   0.00000  Uiso   1.00
H468   H     0.30872   0.50782   0.25907   0.00000  Uiso   1.00
O469   O     0.21685   0.46355   0.22094   0.00000  Uiso   1.00
O470   O     0.31728   0.43070   0.16222   0.00000  Uiso   1.00
H471   H     0.28923   0.35684   0.19521   0.00000  Uiso   1.00
H472   H     0.96433   0.16693   0.62184   0.00000  Uiso   1.00
C473   C     0.27234   0.29779   0.41220   0.00000  Uiso   1.00
C474   C     0.24031   0.30005   0.39720   0.00000  Uiso   1.00
C475   C     0.21096   0.28967   0.41465   0.00000  Uiso   1.00
C476   C     0.21356   0.27650   0.44776   0.00000  Uiso   1.00
C477   C     0.24580   0.27469   0.46324   0.00000  Uiso   1.00
C478   C     0.27474   0.28600   0.44555   0.00000  Uiso   1.00
C479   C     0.17685   0.29355   0.39818   0.00000  Uiso   1.00
C480   C     0.24939   0.26096   0.49851   0.00000  Uiso   1.00
C481   C     0.17247   0.23210   0.45823   0.00000  Uiso   1.00
C482   C     0.14184   0.22025   0.47220   0.00000  Uiso   1.00
C483   C     0.12266   0.24164   0.49352   0.00000  Uiso   1.00
C484   C     0.13459   0.27428   0.50094   0.00000  Uiso   1.00
C485   C     0.16549   0.28505   0.48639   0.00000  Uiso   1.00
C486   C     0.12971   0.18775   0.46493   0.00000  Uiso   1.00
C487   C     0.09900   0.17661   0.47866   0.00000  Uiso   1.00
C488   C     0.07956   0.19775   0.49988   0.00000  Uiso   1.00
C489   C     0.09135   0.23046   0.50720   0.00000  Uiso   1.00
C490   C     0.07179   0.25209   0.52794   0.00000  Uiso   1.00
C491   C     0.08397   0.28452   0.53538   0.00000  Uiso   1.00
C492   C     0.11507   0.29541   0.52220   0.00000  Uiso   1.00
C493   C     0.04852   0.18708   0.51394   0.00000  Uiso   1.00
C494   C     0.04043   0.24069   0.54066   0.00000  Uiso   1.00
C495   C     0.99780   0.19708   0.54807   0.00000  Uiso   1.00
C496   C     0.96776   0.20622   0.49159   0.00000  Uiso   1.00
C497   C     0.93707   0.18664   0.54311   0.00000  Uiso   1.00
C498   C     0.02695   0.18766   0.60443   0.00000  Uiso   1.00
C499   C     0.96553   0.17497   0.59572   0.00000  Uiso   1.00
C500   C     0.99629   0.18640   0.58214   0.00000  Uiso   1.00
C501   C     0.96795   0.19655   0.52830   0.00000  Uiso   1.00
C502   C     0.93601   0.17573   0.57667   0.00000  Uiso   1.00
H503   H     0.03460   0.21442   0.60776   0.00000  Uiso   1.00
N504   N     0.18351   0.26417   0.46503   0.00000  Uiso   1.00
N505   N     0.02955   0.20857   0.53380   0.00000  Uiso   1.00
H506   H     0.04824   0.17286   0.59307   0.00000  Uiso   1.00
H507   H     0.23812   0.31107   0.37222   0.00000  Uiso   1.00
H508   H     0.29919   0.28621   0.45790   0.00000  Uiso   1.00
H509   H     0.17892   0.30553   0.37288   0.00000  Uiso   1.00
H510   H     0.16519   0.26827   0.39534   0.00000  Uiso   1.00
H511   H     0.15999   0.30985   0.41394   0.00000  Uiso   1.00
H512   H     0.24032   0.23442   0.49965   0.00000  Uiso   1.00
H513   H     0.27623   0.26102   0.50696   0.00000  Uiso   1.00
H514   H     0.23410   0.27670   0.51621   0.00000  Uiso   1.00
O515   O     0.17721   0.31692   0.49307   0.00000  Uiso   1.00
O516   O     0.19110   0.21161   0.43704   0.00000  Uiso   1.00
H517   H     0.14383   0.17085   0.44848   0.00000  Uiso   1.00
H518   H     0.12359   0.32055   0.52855   0.00000  Uiso   1.00
H519   H     0.09045   0.15144   0.47240   0.00000  Uiso   1.00
H520   H     0.94845   0.22656   0.48701   0.00000  Uiso   1.00
H521   H     0.99262   0.21559   0.48257   0.00000  Uiso   1.00
H522   H     0.91395   0.18725   0.52852   0.00000  Uiso   1.00
H523   H     0.06952   0.30157   0.55145   0.00000  Uiso   1.00
H524   H     0.02160   0.17692   0.62982   0.00000  Uiso   1.00
O525   O     0.02054   0.26192   0.55999   0.00000  Uiso   1.00
O526   O     0.03702   0.15507   0.50750   0.00000  Uiso   1.00
H527   H     0.96113   0.18367   0.47648   0.00000  Uiso   1.00
H528   H     0.07440   0.65786   0.77997   0.00000  Uiso   1.00
C529   C     0.94973   0.02587   0.69215   0.00000  Uiso   1.00
C530   C     0.96037   0.02586   0.72568   0.00000  Uiso   1.00
C531   C     0.97575   0.99676   0.74013   0.00000  Uiso   1.00
C532   C     0.97874   0.96657   0.72118   0.00000  Uiso   1.00
C533   C     0.96759   0.96665   0.68740   0.00000  Uiso   1.00
C534   C     0.95351  -0.00360   0.67313   0.00000  Uiso   1.00
C535   C     0.98916   0.99831   0.77540   0.00000  Uiso   1.00
C536   C     0.96997   0.93492   0.66668   0.00000  Uiso   1.00
C537   C     0.96966   0.91478   0.75372   0.00000  Uiso   1.00
C538   C     0.98031   0.88229   0.76498   0.00000  Uiso   1.00
C539   C     0.01396   0.87137   0.75866   0.00000  Uiso   1.00
C540   C     0.03659   0.89331   0.74201   0.00000  Uiso   1.00
C541   C     0.02475   0.92552   0.73100   0.00000  Uiso   1.00
C542   C     0.95797   0.86022   0.78174   0.00000  Uiso   1.00
C543   C     0.96870   0.82756   0.79146   0.00000  Uiso   1.00
C544   C     0.00211   0.81620   0.78491   0.00000  Uiso   1.00
C545   C     0.02492   0.83833   0.76876   0.00000  Uiso   1.00
C546   C     0.05864   0.82748   0.76265   0.00000  Uiso   1.00
C547   C     0.08115   0.84983   0.74650   0.00000  Uiso   1.00
C548   C     0.07024   0.88227   0.73620   0.00000  Uiso   1.00
C549   C     0.01347   0.78337   0.79443   0.00000  Uiso   1.00
C550   C     0.06905   0.79464   0.77321   0.00000  Uiso   1.00
C551   C     0.05858   0.74094   0.80229   0.00000  Uiso   1.00
C552   C     0.06300   0.76688   0.86105   0.00000  Uiso   1.00
C553   C     0.07822   0.70674   0.84971   0.00000  Uiso   1.00
C554   C     0.05328   0.71424   0.74471   0.00000  Uiso   1.00
C555   C     0.07288   0.68037   0.79544   0.00000  Uiso   1.00
C556   C     0.06194   0.71188   0.78147   0.00000  Uiso   1.00
C557   C     0.06670   0.73788   0.83679   0.00000  Uiso   1.00
C558   C     0.08136   0.67794   0.82957   0.00000  Uiso   1.00
H559   H     0.07022   0.73264   0.73194   0.00000  Uiso   1.00
N560   N     0.99159   0.93537   0.73635   0.00000  Uiso   1.00
N561   N     0.04655   0.77328   0.78884   0.00000  Uiso   1.00
H562   H     0.02650   0.72291   0.74172   0.00000  Uiso   1.00
H563   H     0.95650   0.04856   0.74055   0.00000  Uiso   1.00
H564   H     0.94412  -0.00376   0.64757   0.00000  Uiso   1.00
H565   H     0.98558   0.02404   0.78627   0.00000  Uiso   1.00
H566   H     0.97588   0.97982   0.79186   0.00000  Uiso   1.00
H567   H     0.01680   0.99229   0.77517   0.00000  Uiso   1.00
H568   H     0.95569   0.91422   0.67924   0.00000  Uiso   1.00
H569   H     0.95919   0.93895   0.64119   0.00000  Uiso   1.00
H570   H     0.99698   0.92701   0.66375   0.00000  Uiso   1.00
O571   O     0.04631   0.94679   0.71399   0.00000  Uiso   1.00
O572   O     0.93675   0.92546   0.75925   0.00000  Uiso   1.00
H573   H     0.93201   0.86799   0.78713   0.00000  Uiso   1.00
H574   H     0.08823   0.89861   0.72354   0.00000  Uiso   1.00
H575   H     0.95068   0.81126   0.80414   0.00000  Uiso   1.00
H576   H     0.08784   0.77137   0.87318   0.00000  Uiso   1.00
H577   H     0.05453   0.79091   0.84892   0.00000  Uiso   1.00
H578   H     0.08380   0.70469   0.87631   0.00000  Uiso   1.00
H579   H     0.10726   0.84227   0.74158   0.00000  Uiso   1.00
H580   H     0.05645   0.68935   0.73204   0.00000  Uiso   1.00
O581   O     0.10216   0.78426   0.76847   0.00000  Uiso   1.00
O582   O     0.99149   0.76168   0.81035   0.00000  Uiso   1.00
H583   H     0.04417   0.76014   0.88088   0.00000  Uiso   1.00
H584   H     0.87813   0.20650   0.74519   0.00000  Uiso   1.00
C585   C     0.04907   0.54361   0.83259   0.00000  Uiso   1.00
C586   C     0.05518   0.53340   0.79930   0.00000  Uiso   1.00
C587   C     0.04079   0.50403   0.78679   0.00000  Uiso   1.00
C588   C     0.01864   0.48529   0.80742   0.00000  Uiso   1.00
C589   C     0.01028   0.49667   0.84009   0.00000  Uiso   1.00
C590   C     0.02557   0.52600   0.85246   0.00000  Uiso   1.00
C591   C     0.05125   0.49135   0.75253   0.00000  Uiso   1.00
C592   C     0.98705   0.47629   0.86237   0.00000  Uiso   1.00
C593   C     0.02643   0.42472   0.80216   0.00000  Uiso   1.00
C594   C     0.01621   0.39306   0.79048   0.00000  Uiso   1.00
C595   C     0.98582   0.39112   0.77215   0.00000  Uiso   1.00
C596   C     0.96649   0.42077   0.76538   0.00000  Uiso   1.00
C597   C     0.97757   0.45183   0.77792   0.00000  Uiso   1.00
C598   C     0.03553   0.36343   0.79671   0.00000  Uiso   1.00
C599   C     0.02412   0.33199   0.78598   0.00000  Uiso   1.00
C600   C     0.99347   0.32968   0.76835   0.00000  Uiso   1.00
C601   C     0.97465   0.35942   0.76071   0.00000  Uiso   1.00
C602   C     0.94462   0.35751   0.74181   0.00000  Uiso   1.00
C603   C     0.92599   0.38735   0.73448   0.00000  Uiso   1.00
C604   C     0.93670   0.41865   0.74635   0.00000  Uiso   1.00
C605   C     0.98102   0.29829   0.75816   0.00000  Uiso   1.00
C606   C     0.93399   0.32564   0.73088   0.00000  Uiso   1.00
C607   C     0.94018   0.26430   0.72897   0.00000  Uiso   1.00
C608   C     0.98393   0.26438   0.68104   0.00000  Uiso   1.00
C609   C     0.94493   0.21607   0.69153   0.00000  Uiso   1.00
C610   C     0.89491   0.26610   0.77470   0.00000  Uiso   1.00
C611   C     0.90064   0.21746   0.73398   0.00000  Uiso   1.00
C612   C     0.91256   0.24872   0.74564   0.00000  Uiso   1.00
C613   C     0.95631   0.24785   0.70162   0.00000  Uiso   1.00
C614   C     0.91658   0.20132   0.70672   0.00000  Uiso   1.00
H615   H     0.88244   0.28999   0.76590   0.00000  Uiso   1.00
N616   N     0.00692   0.45313   0.79601   0.00000  Uiso   1.00
N617   N     0.95180   0.29684   0.73981   0.00000  Uiso   1.00
H618   H     0.91361   0.27224   0.79445   0.00000  Uiso   1.00
H619   H     0.07335   0.54695   0.78381   0.00000  Uiso   1.00
H620   H     0.02116   0.53353   0.87830   0.00000  Uiso   1.00
H621   H     0.06898   0.50896   0.73968   0.00000  Uiso   1.00
H622   H     0.06440   0.46631   0.75507   0.00000  Uiso   1.00
H623   H     0.02855   0.48860   0.73646   0.00000  Uiso   1.00
H624   H     0.99809   0.45049   0.86650   0.00000  Uiso   1.00
H625   H     0.98323   0.48834   0.88730   0.00000  Uiso   1.00
H626   H     0.96189   0.47396   0.85024   0.00000  Uiso   1.00
O627   O     0.95907   0.48105   0.77185   0.00000  Uiso   1.00
O628   O     0.05620   0.42728   0.81971   0.00000  Uiso   1.00
H629   H     0.05934   0.36437   0.81015   0.00000  Uiso   1.00
H630   H     0.92159   0.44115   0.74061   0.00000  Uiso   1.00
H631   H     0.03939   0.30956   0.79152   0.00000  Uiso   1.00
H632   H     0.97574   0.26632   0.65440   0.00000  Uiso   1.00
H633   H     0.98975   0.29039   0.68947   0.00000  Uiso   1.00
H634   H     0.95655   0.20419   0.66976   0.00000  Uiso   1.00
H635   H     0.90286   0.38661   0.71992   0.00000  Uiso   1.00
H636   H     0.87506   0.24988   0.78619   0.00000  Uiso   1.00
O637   O     0.90563   0.32334   0.71116   0.00000  Uiso   1.00
O638   O     0.99828   0.26889   0.76653   0.00000  Uiso   1.00
H639   H     1.00755   0.24869   0.68232   0.00000  Uiso   1.00
H640   H     0.04549   0.70518   0.96513   0.00000  Uiso   1.00
C641   C     0.68590   0.82144   0.07716   0.00000  Uiso   1.00
C642   C     0.68922   0.78624   0.07497   0.00000  Uiso   1.00
C643   C     0.72133   0.77123   0.06956   0.00000  Uiso   1.00
C644   C     0.75004   0.79200   0.06495   0.00000  Uiso   1.00
C645   C     0.74669   0.82754   0.06765   0.00000  Uiso   1.00
C646   C     0.71465   0.84188   0.07407   0.00000  Uiso   1.00
C647   C     0.72511   0.73322   0.06899   0.00000  Uiso   1.00
C648   C     0.77700   0.85014   0.06336   0.00000  Uiso   1.00
C649   C     0.78611   0.77194   0.02008   0.00000  Uiso   1.00
C650   C     0.81632   0.75723   0.00790   0.00000  Uiso   1.00
C651   C     0.84198   0.74798   0.03085   0.00000  Uiso   1.00
C652   C     0.83716   0.75380   0.06551   0.00000  Uiso   1.00
C653   C     0.80646   0.76883   0.07652   0.00000  Uiso   1.00
C654   C     0.82132   0.75145   0.97341   0.00000  Uiso   1.00
C655   C     0.85164   0.73689   0.96173   0.00000  Uiso   1.00
C656   C     0.87742   0.72744   0.98436   0.00000  Uiso   1.00
C657   C     0.87247   0.73277   0.01907   0.00000  Uiso   1.00
C658   C     0.89788   0.72280   0.04202   0.00000  Uiso   1.00
C659   C     0.89291   0.72877   0.07652   0.00000  Uiso   1.00
C660   C     0.86294   0.74427   0.08814   0.00000  Uiso   1.00
C661   C     0.90807   0.71258   0.97322   0.00000  Uiso   1.00
C662   C     0.92762   0.70696   0.02979   0.00000  Uiso   1.00
C663   C     0.96314   0.68635   0.98407   0.00000  Uiso   1.00
C664   C     0.93215   0.63047   0.97536   0.00000  Uiso   1.00
C665   C     0.99414   0.63664   0.96351   0.00000  Uiso   1.00
C666   C     0.99287   0.74268   0.99003   0.00000  Uiso   1.00
C667   C     0.02286   0.69021   0.96870   0.00000  Uiso   1.00
C668   C     0.99300   0.70560   0.98102   0.00000  Uiso   1.00
C669   C     0.96367   0.65171   0.97480   0.00000  Uiso   1.00
C670   C     0.02370   0.65574   0.96034   0.00000  Uiso   1.00
H671   H     0.98753   0.74560   0.01730   0.00000  Uiso   1.00
N672   N     0.78169   0.77727   0.05379   0.00000  Uiso   1.00
N673   N     0.93222   0.70232   0.99594   0.00000  Uiso   1.00
H674   H     0.97302   0.75661   0.97550   0.00000  Uiso   1.00
H675   H     0.66702   0.77056   0.07822   0.00000  Uiso   1.00
H676   H     0.71182   0.86923   0.07609   0.00000  Uiso   1.00
H677   H     0.70084   0.72062   0.07538   0.00000  Uiso   1.00
H678   H     0.73344   0.72488   0.04363   0.00000  Uiso   1.00
H679   H     0.74432   0.72503   0.08782   0.00000  Uiso   1.00
H680   H     0.78811   0.84700   0.03782   0.00000  Uiso   1.00
H681   H     0.77010   0.87740   0.06665   0.00000  Uiso   1.00
H682   H     0.79650   0.84333   0.08238   0.00000  Uiso   1.00
O683   O     0.80121   0.77487   0.11013   0.00000  Uiso   1.00
O684   O     0.76076   0.78099   0.99804   0.00000  Uiso   1.00
H685   H     0.80181   0.75815   0.95535   0.00000  Uiso   1.00
H686   H     0.85999   0.74856   0.11488   0.00000  Uiso   1.00
H687   H     0.85466   0.73285   0.93497   0.00000  Uiso   1.00
H688   H     0.93681   0.60702   0.99038   0.00000  Uiso   1.00
H689   H     0.90983   0.64387   0.98642   0.00000  Uiso   1.00
H690   H     0.99431   0.61040   0.95545   0.00000  Uiso   1.00
H691   H     0.91220   0.72156   0.09464   0.00000  Uiso   1.00
H692   H     0.01773   0.75455   0.98448   0.00000  Uiso   1.00
O693   O     0.95219   0.69600   0.05187   0.00000  Uiso   1.00
O694   O     0.91371   0.70800   0.93943   0.00000  Uiso   1.00
H695   H     0.92571   0.62331   0.94922   0.00000  Uiso   1.00
H696   H     0.41499   0.49146   0.28800   0.00000  Uiso   1.00
C697   C     0.59176   0.81538   0.18789   0.00000  Uiso   1.00
C698   C     0.61667   0.79065   0.19457   0.00000  Uiso   1.00
C699   C     0.60763   0.75707   0.20181   0.00000  Uiso   1.00
C700   C     0.57297   0.74858   0.20424   0.00000  Uiso   1.00
C701   C     0.54769   0.77369   0.19822   0.00000  Uiso   1.00
C702   C     0.55736   0.80685   0.18995   0.00000  Uiso   1.00
C703   C     0.63489   0.73001   0.20428   0.00000  Uiso   1.00
C704   C     0.51061   0.76486   0.19864   0.00000  Uiso   1.00
C705   C     0.56204   0.70800   0.24856   0.00000  Uiso   1.00
C706   C     0.55231   0.67584   0.26016   0.00000  Uiso   1.00
C707   C     0.54444   0.65067   0.23664   0.00000  Uiso   1.00
C708   C     0.54647   0.65803   0.20193   0.00000  Uiso   1.00
C709   C     0.55608   0.69080   0.19147   0.00000  Uiso   1.00
C710   C     0.54996   0.66843   0.29469   0.00000  Uiso   1.00
C711   C     0.53922   0.63662   0.30580   0.00000  Uiso   1.00
C712   C     0.53101   0.61133   0.28262   0.00000  Uiso   1.00
C713   C     0.53416   0.61820   0.24791   0.00000  Uiso   1.00
C714   C     0.52654   0.59286   0.22449   0.00000  Uiso   1.00
C715   C     0.52899   0.60032   0.18989   0.00000  Uiso   1.00
C716   C     0.53864   0.63261   0.17874   0.00000  Uiso   1.00
C717   C     0.51888   0.57958   0.29325   0.00000  Uiso   1.00
C718   C     0.51579   0.56097   0.23637   0.00000  Uiso   1.00
C719   C     0.49451   0.52463   0.28141   0.00000  Uiso   1.00
C720   C     0.55054   0.49957   0.30358   0.00000  Uiso   1.00
C721   C     0.49571   0.46890   0.30911   0.00000  Uiso   1.00
C722   C     0.43830   0.55035   0.26191   0.00000  Uiso   1.00
C723   C     0.44238   0.49307   0.29000   0.00000  Uiso   1.00
C724   C     0.45892   0.52199   0.27781   0.00000  Uiso   1.00
C725   C     0.51292   0.49789   0.29755   0.00000  Uiso   1.00
C726   C     0.46059   0.46637   0.30527   0.00000  Uiso   1.00
H727   H     0.44560   0.55335   0.23507   0.00000  Uiso   1.00
N728   N     0.56350   0.71496   0.21481   0.00000  Uiso   1.00
N729   N     0.51108   0.55528   0.27017   0.00000  Uiso   1.00
H730   H     0.44278   0.57450   0.27525   0.00000  Uiso   1.00
H731   H     0.64318   0.79687   0.19088   0.00000  Uiso   1.00
H732   H     0.53815   0.82560   0.18297   0.00000  Uiso   1.00
H733   H     0.66060   0.74063   0.20025   0.00000  Uiso   1.00
H734   H     0.63412   0.71764   0.22941   0.00000  Uiso   1.00
H735   H     0.63080   0.71067   0.18460   0.00000  Uiso   1.00
H736   H     0.50352   0.75396   0.22347   0.00000  Uiso   1.00
H737   H     0.49416   0.78753   0.19385   0.00000  Uiso   1.00
H738   H     0.50558   0.74606   0.17870   0.00000  Uiso   1.00
O739   O     0.55794   0.69861   0.15780   0.00000  Uiso   1.00
O740   O     0.56989   0.73275   0.27124   0.00000  Uiso   1.00
H741   H     0.55604   0.68735   0.31324   0.00000  Uiso   1.00
H742   H     0.53978   0.63759   0.15191   0.00000  Uiso   1.00
H743   H     0.53722   0.63202   0.33263   0.00000  Uiso   1.00
H744   H     0.56345   0.47739   0.29178   0.00000  Uiso   1.00
H745   H     0.56194   0.52292   0.29301   0.00000  Uiso   1.00
H746   H     0.50949   0.44888   0.32229   0.00000  Uiso   1.00
H747   H     0.52292   0.58143   0.17131   0.00000  Uiso   1.00
H748   H     0.41065   0.54526   0.26293   0.00000  Uiso   1.00
O749   O     0.50876   0.53581   0.21388   0.00000  Uiso   1.00
O750   O     0.51380   0.57331   0.32692   0.00000  Uiso   1.00
H751   H     0.55539   0.49884   0.33108   0.00000  Uiso   1.00
loop_
_geom_bond_atom_site_label_1
_geom_bond_atom_site_label_2
_geom_bond_distance
_geom_bond_site_symmetry_2
_ccdc_geom_bond_type
O0     C6      1.317   .     A
O0     Yb3     2.214   .     S
Yb1    Yb3     2.977   .     S
Yb1    O4      2.178   .     S
Yb1    O9      2.205   .     S
Yb1    O10     2.155   .     S
Yb1    O11     2.121   .     S
Yb1    O16     2.130   .     S
Yb1    O17     2.134   .     S
Yb1    O19     2.155   .     S
C2     O16     1.279   .     A
C2     O17     1.279   .     A
C2     C390    1.481   .     S
Yb3    O7      2.118   .     S
Yb3    O10     2.140   .     S
Yb3    O12     2.150   .     S
Yb3    O13     2.226   .     S
Yb3    O18     2.183   .     S
Yb3    O19     2.118   .     S
O4     C6      1.313   .     A
C5     O18     1.211   .     D
C5     O19     1.383   .     S
C5     C558    1.475   .     S
C6     C110    1.482   .     S
O7     C8      1.269   .     A
C8     O12     1.280   .     A
C8     C670    1.469   .     S
O9     C14     1.214   .     D
O10    C14     1.373   .     S
O11    C15     1.298   .     A
O13    C15     1.316   .     A
C14    C417    1.483   .     S
C15    C585    1.469   .     S
O20    C26     1.316   .     A
O20    Yb23    2.201   .     S
Yb21   Yb23    2.869   .     S
Yb21   O24     2.131   .     S
Yb21   O29     2.184   .     S
Yb21   O30     2.132   .     S
Yb21   O31     2.112   .     S
Yb21   O36     2.163   .     S
Yb21   O37     2.117   .     S
Yb21   O39     2.117   .     S
C22    O36     1.286   .     A
C22    O37     1.274   .     A
C22    C81     1.480   .     S
Yb23   O27     2.153   .     S
Yb23   O30     2.085   .     S
Yb23   O32     2.189   .     S
Yb23   O33     2.185   .     S
Yb23   O38     2.127   .     S
Yb23   O39     2.170   .     S
O24    C26     1.304   .     A
C25    O38     1.225   .     D
C25    O39     1.390   .     S
C25    C166    1.446   .     S
C26    C278    1.478   .     S
O27    C28     1.280   .     A
C28    O32     1.283   .     A
C28    C334    1.492   .     S
O29    C34     1.236   .     D
O30    C34     1.377   .     S
O31    C35     1.293   .     A
O33    C35     1.307   .     A
C34    C641    1.457   .     S
C35    C697    1.459   .     S
O40    C46     1.312   .     A
O40    Yb43    2.192   .     S
Yb41   Yb43    2.874   .     S
Yb41   O44     2.151   .     S
Yb41   O49     2.186   .     S
Yb41   O50     2.084   .     S
Yb41   O51     2.112   .     S
Yb41   O56     2.127   .     S
Yb41   O57     2.085   .     S
Yb41   O59     2.080   .     S
C42    O56     1.285   .     A
C42    O57     1.274   .     A
C42    C193    1.442   .     S
Yb43   O47     2.149   .     S
Yb43   O50     2.099   .     S
Yb43   O52     2.156   .     S
Yb43   O53     2.189   .     S
Yb43   O58     2.155   .     S
Yb43   O59     2.160   .     S
O44    C46     1.304   .     A
C45    O58     1.225   .     D
C45    O59     1.378   .     S
C45    C249    1.441   .     S
C46    C614    1.460   .     S
O47    C48     1.279   .     A
C48    O52     1.281   .     A
C48    C529    1.468   .     S
O49    C54     1.227   .     D
O50    C54     1.389   .     S
O51    C55     1.296   .     A
O53    C55     1.309   .     A
C54    C502    1.463   .     S
C55    C305    1.478   .     S
O60    C66     1.318   .     A
O60    Yb63    2.213   .     S
Yb61   Yb63    2.857   .     S
Yb61   O64     2.129   .     S
Yb61   O69     2.174   .     S
Yb61   O70     2.153   .     S
Yb61   O71     2.123   .     S
Yb61   O76     2.171   .     S
Yb61   O77     2.122   .     S
Yb61   O79     2.108   .     S
C62    O76     1.287   .     A
C62    O77     1.271   .     A
C62    C726    1.471   .     S
Yb63   O67     2.161   .     S
Yb63   O70     2.122   .     S
Yb63   O72     2.191   .     S
Yb63   O73     2.174   .     S
Yb63   O78     2.128   .     S
Yb63   O79     2.191   .     S
O64    C66     1.304   .     A
C65    O78     1.218   .     D
C65    O79     1.392   .     S
C65    C361    1.456   .     S
C66    C222    1.485   .     S
O67    C68     1.273   .     A
C68    O72     1.282   .     A
C68    C473    1.478   .     S
O69    C74     1.230   .     D
O70    C74     1.392   .     S
O71    C75     1.294   .     A
O73    C75     1.303   .     A
C74    C137    1.480   .     S
C75    C446    1.460   .     S
H80    C107    1.084   .     S
C81    C82     1.405   .     A
C81    C86     1.401   1_554 A
C82    C83     1.402   .     A
C82    H115    1.084   .     S
C83    C84     1.411   .     A
C83    C87     1.508   .     S
C84    C85     1.415   1_554 A
C84    N112    1.445   1_554 S
C85    C86     1.409   .     A
C85    C88     1.502   .     S
C85    C84     1.415   1_556 A
C86    H116    1.083   .     S
C86    C81     1.401   1_556 A
C87    H117    1.111   .     S
C87    H118    1.110   .     S
C87    H119    1.111   .     S
C88    H120    1.110   .     S
C88    H121    1.111   .     S
C88    H122    1.110   .     S
C89    C90     1.409   .     A
C89    N112    1.372   .     A
C89    O124    1.373   .     S
C90    C91     1.408   .     A
C90    C94     1.407   .     A
C91    C97     1.416   .     A
C91    C92     1.410   1_556 A
C92    C93     1.407   .     A
C92    C100    1.405   .     A
C92    C91     1.410   1_554 A
C93    O123    1.373   .     S
C93    N112    1.370   1_554 A
C94    C95     1.400   .     A
C94    H125    1.083   .     S
C95    C96     1.406   .     A
C95    H127    1.083   .     S
C96    C97     1.410   .     A
C96    C101    1.411   .     A
C97    C98     1.407   .     A
C98    C102    1.404   .     A
C98    C99     1.405   1_556 A
C99    C100    1.396   .     A
C99    H131    1.083   .     S
C99    C98     1.405   1_554 A
C100   H126    1.083   .     S
C101   N113    1.372   .     A
C101   O134    1.373   .     S
C102   N113    1.371   .     A
C102   O133    1.374   .     S
C103   C108    1.411   .     A
C103   C109    1.419   .     A
C103   N113    1.445   .     S
C104   C109    1.503   .     S
C104   H128    1.110   .     S
C104   H129    1.108   .     S
C104   H135    1.111   .     S
C105   C109    1.409   .     A
C105   C110    1.401   .     A
C105   H130    1.084   .     S
C106   C108    1.508   .     S
C106   H111    1.109   .     S
C106   H114    1.111   .     S
C106   H132    1.111   .     S
C107   C108    1.397   .     A
C107   C110    1.405   .     A
N112   C84     1.445   1_556 S
N112   C93     1.370   1_556 A
H136   C163    1.084   .     S
C137   C138    1.404   .     A
C137   C142    1.402   .     A
C138   C139    1.403   .     A
C138   H171    1.084   .     S
C139   C140    1.410   .     A
C139   C143    1.505   .     S
C140   C141    1.416   .     A
C140   N168    1.445   .     S
C141   C142    1.410   .     A
C141   C144    1.505   .     S
C142   H172    1.083   .     S
C143   H173    1.111   .     S
C143   H174    1.109   .     S
C143   H175    1.111   .     S
C144   H176    1.111   .     S
C144   H177    1.109   .     S
C144   H178    1.110   .     S
C145   C146    1.406   .     A
C145   N168    1.371   .     A
C145   O180    1.373   .     S
C146   C147    1.408   .     A
C146   C150    1.406   .     A
C147   C148    1.409   .     A
C147   C153    1.415   .     A
C148   C149    1.408   .     A
C148   C156    1.406   .     A
C149   N168    1.371   .     A
C149   O179    1.373   .     S
C150   C151    1.397   .     A
C150   H181    1.083   .     S
C151   C152    1.403   .     A
C151   H183    1.083   .     S
C152   C153    1.409   .     A
C152   C157    1.403   .     A
C153   C154    1.409   .     A
C154   C155    1.405   .     A
C154   C158    1.405   .     A
C155   C156    1.399   .     A
C155   H187    1.084   .     S
C156   H182    1.083   .     S
C157   N169    1.368   .     A
C157   O190    1.373   .     S
C158   N169    1.371   .     A
C158   O189    1.373   .     S
C159   C164    1.416   .     A
C159   N169    1.438   .     S
C159   C165    1.417   1_545 A
C160   C165    1.507   .     S
C160   H184    1.111   .     S
C160   H191    1.111   .     S
C160   H185    1.107   1_565 S
C161   C165    1.400   .     A
C161   C166    1.398   .     A
C161   H186    1.086   .     S
C162   C164    1.503   .     S
C162   H167    1.109   .     S
C162   H170    1.109   .     S
C162   H188    1.112   .     S
C163   C166    1.390   .     A
C163   C164    1.396   1_565 A
C164   C163    1.396   1_545 A
C165   C159    1.417   1_565 A
H185   C160    1.107   1_545 S
H192   C219    1.083   .     S
C193   C194    1.397   .     A
C193   C198    1.390   .     A
C194   C195    1.390   .     A
C194   H227    1.086   .     S
C195   C196    1.410   .     A
C195   C199    1.508   .     S
C196   C197    1.413   .     A
C196   N224    1.429   .     S
C197   C198    1.399   .     A
C197   C200    1.501   .     S
C198   H228    1.083   .     S
C199   H229    1.111   .     S
C199   H230    1.110   .     S
C199   H231    1.110   .     S
C200   H232    1.110   .     S
C200   H233    1.111   .     S
C200   H234    1.109   .     S
C201   C202    1.397   .     A
C201   N224    1.367   .     A
C201   O236    1.374   .     S
C202   C203    1.408   .     A
C202   C206    1.403   .     A
C203   C204    1.410   .     A
C203   C209    1.410   .     A
C204   C205    1.402   .     A
C204   C212    1.404   .     A
C205   N224    1.367   .     A
C205   O235    1.373   .     S
C206   C207    1.394   .     A
C206   H237    1.084   .     S
C207   C208    1.405   .     A
C207   H239    1.083   .     S
C208   C209    1.409   .     A
C208   C213    1.402   .     A
C209   C210    1.408   .     A
C210   C211    1.407   .     A
C210   C214    1.403   .     A
C211   C212    1.397   .     A
C211   H243    1.083   .     S
C212   H238    1.084   .     S
C213   N225    1.369   .     A
C213   O246    1.373   .     S
C214   N225    1.371   .     A
C214   O245    1.373   .     S
C215   C220    1.408   .     A
C215   C221    1.417   .     A
C215   N225    1.440   .     S
C216   C221    1.508   .     S
C216   H240    1.109   .     S
C216   H241    1.109   .     S
C216   H247    1.110   .     S
C217   C221    1.413   .     A
C217   C222    1.406   .     A
C217   H242    1.084   .     S
C218   C220    1.508   .     S
C218   H223    1.110   .     S
C218   H226    1.110   .     S
C218   H244    1.111   .     S
C219   C220    1.395   .     A
C219   C222    1.405   .     A
H248   C275    1.083   .     S
C249   C250    1.396   .     A
C249   C254    1.387   .     A
C250   C251    1.399   .     A
C250   H283    1.083   .     S
C251   C252    1.412   .     A
C251   C255    1.505   .     S
C252   C253    1.411   .     A
C252   N280    1.427   .     S
C253   C254    1.391   .     A
C253   C256    1.507   .     S
C254   H284    1.085   .     S
C255   H285    1.111   .     S
C255   H286    1.109   .     S
C255   H287    1.110   .     S
C256   H288    1.111   .     S
C256   H289    1.111   .     S
C256   H290    1.110   .     S
C257   C258    1.397   .     A
C257   N280    1.368   .     A
C257   O292    1.374   .     S
C258   C259    1.408   .     A
C258   C262    1.404   1_545 A
C259   C260    1.410   .     A
C259   C265    1.408   .     A
C260   C261    1.400   .     A
C260   C268    1.402   .     A
C261   N280    1.365   .     A
C261   O291    1.373   .     S
C262   C263    1.394   .     A
C262   H293    1.084   .     S
C262   C258    1.404   1_565 A
C263   C264    1.405   .     A
C263   H295    1.083   .     S
C264   C269    1.402   .     A
C264   C265    1.409   1_565 A
C265   C266    1.408   .     A
C265   C264    1.409   1_545 A
C266   C267    1.405   .     A
C266   C270    1.400   .     A
C267   C268    1.394   .     A
C267   H299    1.082   .     S
C268   H294    1.083   .     S
C269   N281    1.370   .     A
C269   O302    1.373   .     S
C270   O301    1.373   .     S
C270   N281    1.369   1_545 A
C271   C277    1.410   .     A
C271   N281    1.437   .     S
C271   C276    1.416   1_556 A
C272   C277    1.511   .     S
C272   H296    1.111   .     S
C272   H297    1.109   .     S
C272   H303    1.111   .     S
C273   C278    1.408   .     A
C273   H298    1.085   .     S
C273   C277    1.396   1_554 A
C274   H282    1.110   .     S
C274   H300    1.110   .     S
C274   C276    1.504   1_545 S
C274   H279    1.110   1_554 S
C275   C276    1.406   .     A
C275   C278    1.398   .     A
C276   C271    1.416   1_554 A
C276   C274    1.504   1_565 S
C277   C273    1.396   1_556 A
H279   C274    1.110   1_556 S
N281   C270    1.369   1_565 A
H304   C331    1.084   .     S
C305   C306    1.398   .     A
C305   C310    1.404   .     A
C306   C307    1.406   .     A
C306   H339    1.084   .     S
C307   C308    1.417   .     A
C307   C311    1.501   .     S
C308   C309    1.411   .     A
C308   N336    1.446   .     S
C309   C310    1.397   .     A
C309   C312    1.504   .     S
C310   H340    1.086   .     S
C311   H341    1.111   .     S
C311   H343    1.110   .     S
C311   H342    1.109   1_545 S
C312   H344    1.109   .     S
C312   H345    1.112   .     S
C312   H346    1.110   .     S
C313   N336    1.366   .     A
C313   C314    1.479   1_545 S
C313   O348    1.372   1_545 S
C314   C318    1.401   .     A
C314   C313    1.479   1_565 S
C314   C315    1.403   1_565 A
C315   C316    1.411   .     A
C315   C321    1.419   .     A
C315   C314    1.403   1_545 A
C316   C317    1.417   .     A
C316   C324    1.408   .     A
C317   N336    1.373   .     A
C317   O347    1.373   .     S
C318   C319    1.398   .     A
C318   H349    1.083   .     S
C319   C320    1.407   .     A
C319   H351    1.082   .     S
C320   C325    1.410   .     A
C320   C321    1.409   1_565 A
C321   C322    1.407   .     A
C321   C320    1.409   1_545 A
C322   C323    1.408   .     A
C322   C326    1.414   .     A
C323   C324    1.402   .     A
C323   H355    1.083   .     S
C324   H350    1.083   .     S
C325   N337    1.373   .     A
C325   O358    1.373   .     S
C326   O357    1.372   .     S
C326   N337    1.375   1_545 A
C327   C332    1.415   .     A
C327   C333    1.422   .     A
C327   N337    1.455   .     S
C328   C333    1.505   .     S
C328   H352    1.110   .     S
C328   H353    1.108   .     S
C328   H359    1.111   .     S
C329   C333    1.413   .     A
C329   C334    1.402   .     A
C329   H354    1.084   .     S
C330   H335    1.109   .     S
C330   H338    1.111   .     S
C330   H356    1.111   .     S
C330   C332    1.508   1_545 S
C331   C332    1.407   .     A
C331   C334    1.406   .     A
C332   C330    1.508   1_565 S
N337   C326    1.375   1_565 A
H342   C311    1.109   1_565 S
O348   C313    1.372   1_565 S
H360   C387    1.084   .     S
C361   C362    1.394   .     A
C361   C366    1.399   .     A
C362   C363    1.383   .     A
C362   H395    1.086   .     S
C363   C364    1.407   .     A
C363   C367    1.506   .     S
C364   C365    1.420   .     A
C364   N392    1.436   .     S
C365   C366    1.414   .     A
C365   C368    1.505   .     S
C366   H396    1.084   .     S
C367   H397    1.112   .     S
C367   H398    1.106   .     S
C367   H399    1.109   .     S
C368   H400    1.110   .     S
C368   H401    1.111   .     S
C368   H402    1.109   .     S
C369   C370    1.404   .     A
C369   N392    1.369   .     A
C369   O404    1.373   .     S
C370   C371    1.408   .     A
C370   C374    1.405   .     A
C371   C372    1.409   .     A
C371   C377    1.414   .     A
C372   C373    1.404   .     A
C372   C380    1.405   .     A
C373   N392    1.369   .     A
C373   O403    1.373   .     S
C374   C375    1.398   .     A
C374   H405    1.083   .     S
C375   C376    1.406   .     A
C375   H407    1.083   .     S
C376   C377    1.409   .     A
C376   C381    1.407   .     A
C377   C378    1.408   .     A
C378   C379    1.406   .     A
C378   C382    1.406   .     A
C379   C380    1.397   .     A
C379   H411    1.083   .     S
C380   H406    1.083   .     S
C381   N393    1.371   .     A
C381   O414    1.372   .     S
C382   N393    1.371   .     A
C382   O413    1.373   .     S
C383   C388    1.415   .     A
C383   C389    1.416   .     A
C383   N393    1.445   .     S
C384   C389    1.504   .     S
C384   H408    1.110   .     S
C384   H409    1.108   .     S
C384   H415    1.111   .     S
C385   C389    1.404   .     A
C385   C390    1.402   .     A
C385   H410    1.084   .     S
C386   C388    1.507   .     S
C386   H391    1.110   .     S
C386   H394    1.111   .     S
C386   H412    1.110   .     S
C387   C388    1.405   .     A
C387   C390    1.403   .     A
H416   C443    1.085   .     S
C417   C418    1.404   .     A
C417   C422    1.402   .     A
C418   C419    1.412   .     A
C418   H451    1.084   .     S
C419   C423    1.506   .     S
C419   C420    1.414   1_556 A
C420   C421    1.412   .     A
C420   N448    1.448   .     S
C420   C419    1.414   1_554 A
C421   C424    1.506   .     S
C421   C422    1.406   1_554 A
C422   H452    1.082   .     S
C422   C421    1.406   1_556 A
C423   H453    1.110   .     S
C423   H454    1.111   1_556 S
C423   H455    1.110   1_556 S
C424   H456    1.110   .     S
C424   H457    1.110   .     S
C424   H458    1.110   .     S
C425   C426    1.408   .     A
C425   N448    1.372   .     A
C425   O460    1.373   .     S
C426   C427    1.408   .     A
C426   C430    1.407   .     A
C427   C428    1.409   .     A
C427   C433    1.415   .     A
C428   C429    1.409   .     A
C428   C436    1.407   .     A
C429   N448    1.371   .     A
C429   O459    1.372   .     S
C430   C431    1.398   .     A
C430   H461    1.083   .     S
C431   C432    1.405   .     A
C431   H463    1.083   .     S
C432   C433    1.409   .     A
C432   C437    1.406   .     A
C433   C434    1.408   .     A
C434   C435    1.404   .     A
C434   C438    1.404   .     A
C435   C436    1.397   .     A
C435   H467    1.083   .     S
C436   H462    1.083   .     S
C437   N449    1.371   .     A
C437   O470    1.373   .     S
C438   N449    1.369   .     A
C438   O469    1.373   .     S
C439   C444    1.414   .     A
C439   C445    1.418   .     A
C439   N449    1.441   .     S
C440   C445    1.504   .     S
C440   H464    1.110   .     S
C440   H465    1.108   .     S
C440   H471    1.111   .     S
C441   C445    1.400   .     A
C441   C446    1.393   .     A
C441   H466    1.084   .     S
C442   C444    1.507   .     S
C442   H447    1.109   .     S
C442   H450    1.110   .     S
C442   H468    1.111   .     S
C443   C444    1.399   .     A
C443   C446    1.400   .     A
H454   C423    1.111   1_554 S
H455   C423    1.110   1_554 S
H472   C499    1.084   .     S
C473   C474    1.400   .     A
C473   C478    1.404   .     A
C474   C475    1.408   .     A
C474   H507    1.084   .     S
C475   C476    1.415   .     A
C475   C479    1.503   .     S
C476   C477    1.415   .     A
C476   N504    1.451   .     S
C477   C478    1.411   .     A
C477   C480    1.505   .     S
C478   H508    1.084   .     S
C479   H509    1.111   .     S
C479   H510    1.109   .     S
C479   H511    1.111   .     S
C480   H512    1.110   .     S
C480   H513    1.111   .     S
C480   H514    1.110   .     S
C481   C482    1.409   .     A
C481   N504    1.371   .     A
C481   O516    1.373   .     S
C482   C483    1.408   .     A
C482   C486    1.406   .     A
C483   C484    1.409   .     A
C483   C489    1.419   .     A
C484   C485    1.413   .     A
C484   C492    1.408   .     A
C485   N504    1.374   .     A
C485   O515    1.372   .     S
C486   C487    1.398   .     A
C486   H517    1.082   .     S
C487   C488    1.405   .     A
C487   H519    1.083   .     S
C488   C489    1.409   .     A
C488   C493    1.409   .     A
C489   C490    1.408   .     A
C490   C491    1.405   .     A
C490   C494    1.409   .     A
C491   C492    1.400   .     A
C491   H523    1.084   .     S
C492   H518    1.083   .     S
C493   N505    1.372   .     A
C493   O526    1.373   .     S
C494   N505    1.372   .     A
C494   O525    1.373   .     S
C495   C500    1.416   .     A
C495   C501    1.419   .     A
C495   N505    1.446   1_655 S
C496   C501    1.505   .     S
C496   H520    1.111   .     S
C496   H521    1.108   .     S
C496   H527    1.112   .     S
C497   C501    1.406   .     A
C497   C502    1.399   .     A
C497   H522    1.082   .     S
C498   H503    1.110   .     S
C498   H506    1.110   .     S
C498   H524    1.111   .     S
C498   C500    1.504   1_455 S
C499   C500    1.402   .     A
C499   C502    1.391   .     A
C500   C498    1.504   1_655 S
N505   C495    1.446   1_455 S
H528   C555    1.084   .     S
C529   C530    1.400   .     A
C529   C534    1.396   .     A
C530   H563    1.084   .     S
C530   C531    1.408   1_545 A
C531   C532    1.416   .     A
C531   C535    1.504   .     S
C531   C530    1.408   1_565 A
C532   C533    1.416   .     A
C532   N560    1.450   .     S
C533   C536    1.504   .     S
C533   C534    1.405   1_565 A
C534   H564    1.084   .     S
C534   C533    1.405   1_545 A
C535   H566    1.109   .     S
C535   H565    1.112   1_565 S
C535   H567    1.110   1_655 S
C536   H568    1.110   .     S
C536   H569    1.111   .     S
C536   H570    1.109   .     S
C537   C538    1.411   .     A
C537   N560    1.373   .     A
C537   O572    1.373   .     S
C538   C542    1.406   .     A
C538   C539    1.409   1_655 A
C539   C540    1.409   .     A
C539   C545    1.420   .     A
C539   C538    1.409   1_455 A
C540   C541    1.412   .     A
C540   C548    1.406   .     A
C541   O571    1.373   .     S
C541   N560    1.372   1_455 A
C542   C543    1.400   .     A
C542   H573    1.083   .     S
C543   H575    1.083   .     S
C543   C544    1.407   1_655 A
C544   C545    1.409   .     A
C544   C549    1.411   .     A
C544   C543    1.407   1_455 A
C545   C546    1.409   .     A
C546   C547    1.407   .     A
C546   C550    1.412   .     A
C547   C548    1.401   .     A
C547   H579    1.083   .     S
C548   H574    1.083   .     S
C549   N561    1.373   .     A
C549   O582    1.373   1_455 S
C550   N561    1.373   .     A
C550   O581    1.373   .     S
C551   C556    1.422   .     A
C551   C557    1.414   .     A
C551   N561    1.451   .     S
C552   C557    1.506   .     S
C552   H576    1.110   .     S
C552   H577    1.106   .     S
C552   H583    1.112   .     S
C553   C557    1.396   .     A
C553   C558    1.397   .     A
C553   H578    1.084   .     S
C554   C556    1.505   .     S
C554   H559    1.110   .     S
C554   H562    1.110   .     S
C554   H580    1.111   .     S
C555   C556    1.418   .     A
C555   C558    1.402   .     A
N560   C541    1.372   1_655 A
H565   C535    1.112   1_545 S
H567   C535    1.110   1_455 S
O582   C549    1.373   1_655 S
H584   C611    1.083   .     S
C585   C586    1.405   .     A
C585   C590    1.401   .     A
C586   C587    1.393   .     A
C586   H619    1.084   .     S
C587   C588    1.406   .     A
C587   C591    1.507   .     S
C588   C589    1.413   .     A
C588   N616    1.433   .     S
C589   C590    1.405   .     A
C589   C592    1.505   1_455 S
C590   H620    1.084   .     S
C591   H621    1.111   .     S
C591   H622    1.111   .     S
C591   H623    1.109   .     S
C592   H624    1.111   .     S
C592   H625    1.110   .     S
C592   H626    1.110   .     S
C592   C589    1.505   1_655 S
C593   C594    1.400   .     A
C593   N616    1.369   .     A
C593   O628    1.374   .     S
C594   C598    1.405   .     A
C594   C595    1.408   1_455 A
C595   C596    1.409   .     A
C595   C601    1.410   .     A
C595   C594    1.408   1_655 A
C596   C597    1.402   .     A
C596   C604    1.404   .     A
C597   O627    1.373   .     S
C597   N616    1.367   1_655 A
C598   C599    1.395   .     A
C598   H629    1.083   .     S
C599   H631    1.083   .     S
C599   C600    1.404   1_455 A
C600   C601    1.409   .     A
C600   C605    1.401   .     A
C600   C599    1.404   1_655 A
C601   C602    1.408   .     A
C602   C603    1.406   .     A
C602   C606    1.403   .     A
C603   C604    1.396   .     A
C603   H635    1.083   .     S
C604   H630    1.083   .     S
C605   N617    1.369   .     A
C605   O638    1.373   .     S
C606   N617    1.370   .     A
C606   O637    1.373   .     S
C607   C612    1.415   .     A
C607   C613    1.413   .     A
C607   N617    1.438   .     S
C608   C613    1.509   .     S
C608   H632    1.111   .     S
C608   H633    1.108   .     S
C608   H639    1.110   .     S
C609   C613    1.399   .     A
C609   C614    1.397   .     A
C609   H634    1.083   .     S
C610   C612    1.509   .     S
C610   H615    1.110   .     S
C610   H618    1.111   .     S
C610   H636    1.110   .     S
C611   C612    1.407   .     A
C611   C614    1.401   .     A
N616   C597    1.367   1_455 A
H640   C667    1.084   .     S
C641   C642    1.394   .     A
C641   C646    1.403   .     A
C642   C643    1.404   .     A
C642   H675    1.084   .     S
C643   C644    1.415   .     A
C643   C647    1.502   .     S
C644   C645    1.409   .     A
C644   N672    1.436   .     S
C645   C646    1.397   .     A
C645   C648    1.508   .     S
C646   H676    1.085   .     S
C647   H677    1.110   .     S
C647   H678    1.109   .     S
C647   H679    1.110   .     S
C648   H680    1.110   .     S
C648   H681    1.112   .     S
C648   H682    1.109   .     S
C649   C650    1.400   .     A
C649   N672    1.368   .     A
C649   O684    1.374   1_554 S
C650   C651    1.408   .     A
C650   C654    1.404   1_554 A
C651   C652    1.410   .     A
C651   C657    1.412   .     A
C652   C653    1.407   .     A
C652   C660    1.406   .     A
C653   N672    1.369   .     A
C653   O683    1.373   .     S
C654   C655    1.395   .     A
C654   H685    1.083   .     S
C654   C650    1.404   1_556 A
C655   C656    1.405   .     A
C655   H687    1.083   .     S
C656   C661    1.404   .     A
C656   C657    1.409   1_556 A
C657   C658    1.408   .     A
C657   C656    1.409   1_554 A
C658   C659    1.406   .     A
C658   C662    1.404   .     A
C659   C660    1.398   .     A
C659   H691    1.083   .     S
C660   H686    1.083   .     S
C661   N673    1.370   .     A
C661   O694    1.373   .     S
C662   O693    1.373   .     S
C662   N673    1.370   1_554 A
C663   C668    1.413   .     A
C663   C669    1.416   .     A
C663   N673    1.440   .     S
C664   C669    1.507   .     S
C664   H688    1.109   .     S
C664   H689    1.108   .     S
C664   H695    1.111   .     S
C665   C669    1.403   .     A
C665   H690    1.084   .     S
C665   C670    1.400   1_655 A
C666   C668    1.507   .     S
C666   H674    1.110   .     S
C666   H671    1.110   1_556 S
C666   H692    1.111   1_655 S
C667   C670    1.400   .     A
C667   C668    1.402   1_455 A
C668   C667    1.402   1_655 A
C670   C665    1.400   1_455 A
H671   C666    1.110   1_554 S
N673   C662    1.370   1_556 A
O684   C649    1.374   1_556 S
H692   C666    1.111   1_455 S
H696   C723    1.085   .     S
C697   C698    1.397   .     A
C697   C702    1.402   .     A
C698   C699    1.402   .     A
C698   H731    1.084   .     S
C699   C700    1.412   .     A
C699   C703    1.504   .     S
C700   C701    1.412   .     A
C700   N728    1.440   .     S
C701   C702    1.402   .     A
C701   C704    1.506   .     S
C702   H732    1.085   .     S
C703   H733    1.111   .     S
C703   H734    1.108   .     S
C703   H735    1.111   .     S
C704   H736    1.109   .     S
C704   H737    1.111   .     S
C704   H738    1.110   .     S
C705   C706    1.402   .     A
C705   N728    1.368   .     A
C705   O740    1.373   .     S
C706   C707    1.408   .     A
C706   C710    1.404   .     A
C707   C708    1.410   .     A
C707   C713    1.415   .     A
C708   C709    1.409   .     A
C708   C716    1.406   .     A
C709   N728    1.371   .     A
C709   O739    1.373   .     S
C710   C711    1.396   .     A
C710   H741    1.083   .     S
C711   C712    1.405   .     A
C711   H743    1.083   .     S
C712   C713    1.409   .     A
C712   C717    1.406   .     A
C713   C714    1.408   .     A
C714   C715    1.407   .     A
C714   C718    1.408   .     A
C715   C716    1.400   .     A
C715   H747    1.083   .     S
C716   H742    1.084   .     S
C717   N729    1.371   .     A
C717   O750    1.373   .     S
C718   N729    1.372   .     A
C718   O749    1.373   .     S
C719   C724    1.415   .     A
C719   C725    1.421   .     A
C719   N729    1.447   .     S
C720   C725    1.505   .     S
C720   H744    1.110   .     S
C720   H745    1.108   .     S
C720   H751    1.111   .     S
C721   C725    1.409   .     A
C721   C726    1.397   .     A
C721   H746    1.084   .     S
C722   C724    1.508   .     S
C722   H727    1.109   .     S
C722   H730    1.110   .     S
C722   H748    1.110   .     S
C723   C724    1.402   .     A
C723   C726    1.400   .     A
