data_lcy+N505+E59
_audit_creation_date              2025-01-21
_audit_creation_method            'Materials Studio'
_symmetry_space_group_name_H-M    'P1'
_symmetry_Int_Tables_number       1
_symmetry_cell_setting            triclinic
loop_
_symmetry_equiv_pos_as_xyz
  x,y,z
_cell_length_a                    35.1846
_cell_length_b                    36.8535
_cell_length_c                    35.3188
_cell_angle_alpha                 96.9115
_cell_angle_beta                  92.2111
_cell_angle_gamma                 89.8151
loop_
_atom_site_label
_atom_site_type_symbol
_atom_site_fract_x
_atom_site_fract_y
_atom_site_fract_z
_atom_site_U_iso_or_equiv
_atom_site_adp_type
_atom_site_occupancy
Yb0    Yb    0.12728   0.58528   0.81660   0.00000  Uiso   1.00
Yb1    Yb    0.12216   0.65601   0.90793   0.00000  Uiso   1.00
C2     C     0.09809   0.72203   0.92097   0.00000  Uiso   1.00
O3     O     0.08840   0.56253   0.85445   0.00000  Uiso   1.00
O4     O     0.08542   0.54157   0.79733   0.00000  Uiso   1.00
O5     O     0.08443   0.62183   0.80172   0.00000  Uiso   1.00
O6     O     0.07861   0.65362   0.86072   0.00000  Uiso   1.00
O7     O     0.16924   0.54206   0.81882   0.00000  Uiso   1.00
O8     O     0.13151   0.54204   0.76981   0.00000  Uiso   1.00
O9     O     0.16499   0.69384   0.89638   0.00000  Uiso   1.00
O10    O     0.17050   0.66742   0.94742   0.00000  Uiso   1.00
C11    C     0.07196   0.54057   0.82947   0.00000  Uiso   1.00
O12    O     0.16723   0.56115   0.85432   0.00000  Uiso   1.00
O13    O     0.15689   0.61810   0.87519   0.00000  Uiso   1.00
O14    O     0.12110   0.71212   0.89465   0.00000  Uiso   1.00
C15    C     0.06713   0.64423   0.82576   0.00000  Uiso   1.00
O16    O     0.08916   0.69685   0.94046   0.00000  Uiso   1.00
C17    C     0.15938   0.52664   0.78550   0.00000  Uiso   1.00
C18    C     0.18519   0.68894   0.92620   0.00000  Uiso   1.00
C19    C     0.16479   0.58589   0.88287   0.00000  Uiso   1.00
Yb20   Yb    0.66335   0.88036   0.10548   0.00000  Uiso   1.00
Yb21   Yb    0.55199   0.88952   0.17497   0.00000  Uiso   1.00
C22    C     0.54044   0.93453   0.23102   0.00000  Uiso   1.00
O23    O     0.65973   0.93737   0.10486   0.00000  Uiso   1.00
O24    O     0.71434   0.90817   0.09970   0.00000  Uiso   1.00
O25    O     0.67052   0.88636   0.16735   0.00000  Uiso   1.00
O26    O     0.61136   0.90390   0.17198   0.00000  Uiso   1.00
O27    O     0.66305   0.86181   0.04687   0.00000  Uiso   1.00
O28    O     0.68006   0.82591   0.09004   0.00000  Uiso   1.00
O29    O     0.55108   0.83205   0.16714   0.00000  Uiso   1.00
O30    O     0.49849   0.86443   0.17373   0.00000  Uiso   1.00
C31    C     0.69594   0.93856   0.10024   0.00000  Uiso   1.00
O32    O     0.60504   0.86301   0.11052   0.00000  Uiso   1.00
O33    O     0.54823   0.88774   0.11388   0.00000  Uiso   1.00
O34    O     0.54957   0.90117   0.23436   0.00000  Uiso   1.00
C35    C     0.64115   0.89139   0.18730   0.00000  Uiso   1.00
O36    O     0.53846   0.94375   0.19684   0.00000  Uiso   1.00
C37    C     0.67446   0.83006   0.05450   0.00000  Uiso   1.00
C38    C     0.51436   0.83281   0.16696   0.00000  Uiso   1.00
C39    C     0.57531   0.87427   0.09381   0.00000  Uiso   1.00
Yb40   Yb    0.88790   0.05506   0.66319   0.00000  Uiso   1.00
Yb41   Yb    0.88000   0.13945   0.57310   0.00000  Uiso   1.00
C42    C     0.82752   0.13969   0.52446   0.00000  Uiso   1.00
O43    O     0.83048   0.06680   0.67341   0.00000  Uiso   1.00
O44    O     0.85552   0.01356   0.68251   0.00000  Uiso   1.00
O45    O     0.87487   0.03462   0.60388   0.00000  Uiso   1.00
O46    O     0.86018   0.08972   0.59185   0.00000  Uiso   1.00
O47    O     0.91414   0.06481   0.71811   0.00000  Uiso   1.00
O48    O     0.94339   0.03503   0.66992   0.00000  Uiso   1.00
O49    O     0.93889   0.13189   0.56814   0.00000  Uiso   1.00
O50    O     0.91041   0.18267   0.55547   0.00000  Uiso   1.00
C51    C     0.82610   0.03464   0.68365   0.00000  Uiso   1.00
O52    O     0.90874   0.10548   0.64489   0.00000  Uiso   1.00
O53    O     0.89003   0.16000   0.63266   0.00000  Uiso   1.00
O54    O     0.86000   0.12505   0.51664   0.00000  Uiso   1.00
C55    C     0.87046   0.05749   0.57986   0.00000  Uiso   1.00
O56    O     0.82350   0.15441   0.55919   0.00000  Uiso   1.00
C57    C     0.94388   0.04717   0.70571   0.00000  Uiso   1.00
C58    C     0.94152   0.16430   0.55804   0.00000  Uiso   1.00
C59    C     0.89938   0.13823   0.65695   0.00000  Uiso   1.00
Yb60   Yb    0.37405   0.42594   0.30095   0.00000  Uiso   1.00
Yb61   Yb    0.37268   0.36603   0.41451   0.00000  Uiso   1.00
C62    C     0.41643   0.35025   0.46621   0.00000  Uiso   1.00
O63    O     0.41686   0.46051   0.33264   0.00000  Uiso   1.00
O64    O     0.43266   0.42369   0.28470   0.00000  Uiso   1.00
O65    O     0.38091   0.37825   0.33095   0.00000  Uiso   1.00
O66    O     0.41162   0.34613   0.37015   0.00000  Uiso   1.00
O67    O     0.31892   0.44442   0.31394   0.00000  Uiso   1.00
O68    O     0.35506   0.47319   0.27783   0.00000  Uiso   1.00
O69    O     0.32011   0.34417   0.39301   0.00000  Uiso   1.00
O70    O     0.32630   0.37791   0.44885   0.00000  Uiso   1.00
C71    C     0.44350   0.44776   0.31149   0.00000  Uiso   1.00
O72    O     0.38704   0.45664   0.35828   0.00000  Uiso   1.00
O73    O     0.36034   0.41411   0.38685   0.00000  Uiso   1.00
O74    O     0.39195   0.32688   0.44971   0.00000  Uiso   1.00
C75    C     0.40903   0.35807   0.33771   0.00000  Uiso   1.00
O76    O     0.41800   0.38144   0.45332   0.00000  Uiso   1.00
C77    C     0.32294   0.47102   0.29385   0.00000  Uiso   1.00
C78    C     0.30432   0.36058   0.42275   0.00000  Uiso   1.00
C79    C     0.37972   0.44331   0.38931   0.00000  Uiso   1.00
C80    C     0.31118   0.70607   0.98487   0.00000  Uiso   1.00
C81    C     0.38016   0.70942   0.99415   0.00000  Uiso   1.00
H82    H     0.44936   0.84605  -0.03042   0.00000  Uiso   1.00
C83    C     0.34296   0.76498   0.99986   0.00000  Uiso   1.00
C84    C     0.30962   0.74442   0.99270   0.00000  Uiso   1.00
N85    N     0.53750   0.84053   0.04363   0.00000  Uiso   1.00
N86    N     0.24170   0.70041   0.96983   0.00000  Uiso   1.00
O87    O     0.52139   0.85622  -0.01427   0.00000  Uiso   1.00
O88    O     0.28108   0.65467   0.95122   0.00000  Uiso   1.00
H89    H     0.59441   0.85538   0.03764   0.00000  Uiso   1.00
H90    H     0.56134   0.89318   0.04023   0.00000  Uiso   1.00
H91    H     0.39203   0.80856   0.96483   0.00000  Uiso   1.00
H92    H     0.50379   0.77254   0.04142   0.00000  Uiso   1.00
H93    H     0.44575   0.73642   0.03834   0.00000  Uiso   1.00
H94    H     0.53174   0.82408   0.06481   0.00000  Uiso   1.00
H95    H     0.34903   0.65935   0.98094   0.00000  Uiso   1.00
H96    H     0.24100   0.69885   0.90937   0.00000  Uiso   1.00
H97    H     0.21849   0.73755   0.93458   0.00000  Uiso   1.00
H98    H     0.40721   0.69535  -0.00619   0.00000  Uiso   1.00
H99    H     0.28293   0.75897   0.99125   0.00000  Uiso   1.00
H100   H     0.34085   0.79450   1.00470   0.00000  Uiso   1.00
H101   H     0.23466   0.71806   0.99396   0.00000  Uiso   1.00
C102   C     0.44909   0.82206  -0.01549   0.00000  Uiso   1.00
C103   C     0.51481   0.83758   0.01094   0.00000  Uiso   1.00
C104   C     0.56876   0.86706   0.05150   0.00000  Uiso   1.00
C105   C     0.41409   0.76996   0.00188   0.00000  Uiso   1.00
C106   C     0.48097   0.81300   0.00665   0.00000  Uiso   1.00
C107   C     0.41605   0.80085  -0.01778   0.00000  Uiso   1.00
C108   C     0.47947   0.78132   0.02523   0.00000  Uiso   1.00
C109   C     0.44633   0.76015   0.02302   0.00000  Uiso   1.00
C110   C     0.34680   0.68879   0.98684   0.00000  Uiso   1.00
C111   C     0.27708   0.68488   0.96894   0.00000  Uiso   1.00
C112   C     0.22280   0.70762   0.93389   0.00000  Uiso   1.00
C113   C     0.37867   0.74780   0.99942   0.00000  Uiso   1.00
C114   C     0.49434   0.05747   0.26026   0.00000  Uiso   1.00
C115   C     0.46013   0.11345   0.25107   0.00000  Uiso   1.00
H116   H     0.53915   0.25230   0.28397   0.00000  Uiso   1.00
C117   C     0.52164   0.11671   0.28445   0.00000  Uiso   1.00
C118   C     0.52401   0.07860   0.27936   0.00000  Uiso   1.00
N119   N     0.44330   0.30943   0.30187   0.00000  Uiso   1.00
N120   N     0.52873  -0.00181   0.25714   0.00000  Uiso   1.00
O121   O     0.50569   0.30881   0.31791   0.00000  Uiso   1.00
O122   O     0.46491   0.00045   0.25663   0.00000  Uiso   1.00
H123   H     0.46586   0.36286   0.32066   0.00000  Uiso   1.00
H124   H     0.43042   0.35908   0.28199   0.00000  Uiso   1.00
H125   H     0.54449   0.18627   0.26789   0.00000  Uiso   1.00
H126   H     0.42117   0.23949   0.30966   0.00000  Uiso   1.00
H127   H     0.42668   0.17362   0.29372   0.00000  Uiso   1.00
H128   H     0.41953   0.29484   0.28979   0.00000  Uiso   1.00
H129   H     0.43913   0.05972   0.23130   0.00000  Uiso   1.00
H130   H     0.50517   0.95115   0.27768   0.00000  Uiso   1.00
H131   H     0.55474   0.95877   0.28771   0.00000  Uiso   1.00
H132   H     0.43521   0.12645   0.23979   0.00000  Uiso   1.00
H133   H     0.54836   0.06585   0.29194   0.00000  Uiso   1.00
H134   H     0.54433   0.13222   0.30041   0.00000  Uiso   1.00
H135   H     0.55409   0.01171   0.25344   0.00000  Uiso   1.00
C136   C     0.51437   0.23539   0.28605   0.00000  Uiso   1.00
C137   C     0.47706   0.29152   0.30668   0.00000  Uiso   1.00
C138   C     0.43901   0.34909   0.30937   0.00000  Uiso   1.00
C139   C     0.48584   0.17480   0.27899   0.00000  Uiso   1.00
C140   C     0.47966   0.25129   0.29736   0.00000  Uiso   1.00
C141   C     0.51741   0.19761   0.27682   0.00000  Uiso   1.00
C142   C     0.44809   0.22845   0.29984   0.00000  Uiso   1.00
C143   C     0.45116   0.19062   0.29065   0.00000  Uiso   1.00
C144   C     0.46249   0.07532   0.24597   0.00000  Uiso   1.00
C145   C     0.49496   0.01699   0.25778   0.00000  Uiso   1.00
C146   C     0.53171   0.96031   0.26563   0.00000  Uiso   1.00
C147   C     0.48946   0.13452   0.27085   0.00000  Uiso   1.00
C148   C     0.53958   0.30031   0.49173   0.00000  Uiso   1.00
C149   C     0.60613   0.28444   0.48249   0.00000  Uiso   1.00
H150   H     0.65552   0.13672   0.49300   0.00000  Uiso   1.00
C151   C     0.56550   0.24422   0.51235   0.00000  Uiso   1.00
C152   C     0.53483   0.26788   0.50839   0.00000  Uiso   1.00
N153   N     0.76598   0.16460   0.50440   0.00000  Uiso   1.00
N154   N     0.47087   0.31699   0.48976   0.00000  Uiso   1.00
O155   O     0.72315   0.12196   0.51404   0.00000  Uiso   1.00
O156   O     0.51650   0.35974   0.49195   0.00000  Uiso   1.00
H157   H     0.78552   0.11006   0.48825   0.00000  Uiso   1.00
H158   H     0.80874   0.14522   0.46732   0.00000  Uiso   1.00
H159   H     0.60162   0.17776   0.48827   0.00000  Uiso   1.00
H160   H     0.72900   0.22959   0.52753   0.00000  Uiso   1.00
H161   H     0.67526   0.27049   0.52168   0.00000  Uiso   1.00
H162   H     0.77196   0.19192   0.50184   0.00000  Uiso   1.00
H163   H     0.58013   0.33309   0.46602   0.00000  Uiso   1.00
H164   H     0.45191   0.36907   0.51487   0.00000  Uiso   1.00
H165   H     0.42200   0.33148   0.52101   0.00000  Uiso   1.00
H166   H     0.63335   0.29108   0.47173   0.00000  Uiso   1.00
H167   H     0.50786   0.26134   0.51967   0.00000  Uiso   1.00
H168   H     0.56121   0.22005   0.52635   0.00000  Uiso   1.00
H169   H     0.46356   0.28934   0.48400   0.00000  Uiso   1.00
C170   C     0.66021   0.16586   0.49971   0.00000  Uiso   1.00
C171   C     0.72951   0.15387   0.51009   0.00000  Uiso   1.00
C172   C     0.79645   0.13848   0.49413   0.00000  Uiso   1.00
C173   C     0.63424   0.22738   0.50416   0.00000  Uiso   1.00
C174   C     0.69690   0.17967   0.50981   0.00000  Uiso   1.00
C175   C     0.62928   0.18936   0.49698   0.00000  Uiso   1.00
C176   C     0.70165   0.21775   0.51822   0.00000  Uiso   1.00
C177   C     0.67071   0.24131   0.51514   0.00000  Uiso   1.00
C178   C     0.57555   0.30824   0.47882   0.00000  Uiso   1.00
C179   C     0.50833   0.32737   0.49092   0.00000  Uiso   1.00
C180   C     0.44025   0.34279   0.50031   0.00000  Uiso   1.00
C181   C     0.60154   0.25234   0.49967   0.00000  Uiso   1.00
C182   C     0.74315   1.00163   0.99684   0.00000  Uiso   1.00
C183   C     0.76758   0.02769   0.94237   0.00000  Uiso   1.00
H184   H     0.69872   0.98530   0.79287   0.00000  Uiso   1.00
C185   C     0.72871   0.97308   0.93207   0.00000  Uiso   1.00
C186   C     0.72529   0.97398   0.97148   0.00000  Uiso   1.00
N187   N     0.78957   0.01916   0.73687   0.00000  Uiso   1.00
N188   N     0.72897   0.97127   0.05569   0.00000  Uiso   1.00
O189   O     0.73725   0.98151   0.73249   0.00000  Uiso   1.00
O190   O     0.74305   0.03242   0.05881   0.00000  Uiso   1.00
H191   H     0.78156  -0.00483   0.67940   0.00000  Uiso   1.00
H192   H     0.76601   0.04193   0.68935   0.00000  Uiso   1.00
H193   H     0.69388   0.98548   0.86155   0.00000  Uiso   1.00
H194   H     0.81819   0.01222   0.80920   0.00000  Uiso   1.00
H195   H     0.81307   0.01262   0.87790   0.00000  Uiso   1.00
H196   H     0.80669   0.03751   0.75480   0.00000  Uiso   1.00
H197   H     0.77813   0.05036   1.00054   0.00000  Uiso   1.00
H198   H     0.69598   0.99670   0.10025   0.00000  Uiso   1.00
H199   H     0.74055   0.97753   0.11528   0.00000  Uiso   1.00
H200   H     0.78341   0.04919   0.93161   0.00000  Uiso   1.00
H201   H     0.70794   0.95342   0.98193   0.00000  Uiso   1.00
H202   H     0.71485   0.95128   0.91329   0.00000  Uiso   1.00
H203   H     0.73557   0.94572   0.04127   0.00000  Uiso   1.00
C204   C     0.72402   0.99108   0.81105   0.00000  Uiso   1.00
C205   C     0.76090  -0.00112   0.75339   0.00000  Uiso   1.00
C206   C     0.78852   0.02214   0.69586   0.00000  Uiso   1.00
C207   C     0.75307  -0.00076   0.87515   0.00000  Uiso   1.00
C208   C     0.75874  -0.00087   0.79539   0.00000  Uiso   1.00
C209   C     0.72121   0.99114   0.85041   0.00000  Uiso   1.00
C210   C     0.79075   0.00682   0.82013   0.00000  Uiso   1.00
C211   C     0.78788   0.00696   0.85957   0.00000  Uiso   1.00
C212   C     0.76425   0.02854   0.98180   0.00000  Uiso   1.00
C213   C     0.73861   1.00334   0.03866   0.00000  Uiso   1.00
C214   C     0.71582   0.97329   0.09472   0.00000  Uiso   1.00
C215   C     0.74988  -0.00008   0.91706   0.00000  Uiso   1.00
C216   C     0.68474   0.94801   0.30674   0.00000  Uiso   1.00
C217   C     0.69632  -0.02606   0.37288   0.00000  Uiso   1.00
H218   H     0.84497   0.94932   0.43789   0.00000  Uiso   1.00
C219   C     0.74919   0.96184   0.33134   0.00000  Uiso   1.00
C220   C     0.72400   0.94916   0.30116   0.00000  Uiso   1.00
N221   N     0.84963   0.03844   0.51394   0.00000  Uiso   1.00
N222   N     0.66861   0.90098   0.25199   0.00000  Uiso   1.00
O223   O     0.86127  -0.02190   0.50617   0.00000  Uiso   1.00
O224   O     0.62573   0.94271   0.27426   0.00000  Uiso   1.00
H225   H     0.90300   0.02442   0.53919   0.00000  Uiso   1.00
H226   H     0.89855   0.07051   0.53040   0.00000  Uiso   1.00
H227   H     0.80024   0.93644   0.38377   0.00000  Uiso   1.00
H228   H     0.77640   0.04138   0.48161   0.00000  Uiso   1.00
H229   H     0.73234   0.02914   0.42651   0.00000  Uiso   1.00
H230   H     0.83323   0.06015   0.50616   0.00000  Uiso   1.00
H231   H     0.64084  -0.03849   0.34750   0.00000  Uiso   1.00
H232   H     0.61293   0.88083   0.23780   0.00000  Uiso   1.00
H233   H     0.64994   0.85002   0.22394   0.00000  Uiso   1.00
H234   H     0.68515  -0.01767   0.40073   0.00000  Uiso   1.00
H235   H     0.73539   0.93995   0.27364   0.00000  Uiso   1.00
H236   H     0.77936   0.96214   0.32637   0.00000  Uiso   1.00
H237   H     0.69640   0.89109   0.25355   0.00000  Uiso   1.00
C238   C     0.82040  -0.03313   0.43588   0.00000  Uiso   1.00
C239   C     0.84290   0.00371   0.49618   0.00000  Uiso   1.00
C240   C     0.88261   0.04755   0.53988   0.00000  Uiso   1.00
C241   C     0.76294  -0.01799   0.40071   0.00000  Uiso   1.00
C242   C     0.81463  -0.00344   0.46390   0.00000  Uiso   1.00
C243   C     0.79498   0.95975   0.40465   0.00000  Uiso   1.00
C244   C     0.78236   0.01875   0.46023   0.00000  Uiso   1.00
C245   C     0.75677   0.01151   0.42889   0.00000  Uiso   1.00
C246   C     0.67104   0.96178   0.34251   0.00000  Uiso   1.00
C247   C     0.65802   0.93084   0.27641   0.00000  Uiso   1.00
C248   C     0.64154   0.87925   0.22616   0.00000  Uiso   1.00
C249   C     0.73572   0.97334   0.36777   0.00000  Uiso   1.00
C250   C     0.21292   0.47752   0.66430   0.00000  Uiso   1.00
C251   C     0.22286   0.45638   0.59734   0.00000  Uiso   1.00
H252   H     0.30542   0.54168   0.50172   0.00000  Uiso   1.00
C253   C     0.25855   0.50823   0.62865   0.00000  Uiso   1.00
C254   C     0.24026   0.50511   0.66259   0.00000  Uiso   1.00
N255   N     0.37280   0.45964   0.45788   0.00000  Uiso   1.00
N256   N     0.19310   0.49901   0.73063   0.00000  Uiso   1.00
O257   O     0.33845   0.50770   0.44280   0.00000  Uiso   1.00
O258   O     0.18029   0.44215   0.70301   0.00000  Uiso   1.00
H259   H     0.40820   0.48786   0.42390   0.00000  Uiso   1.00
H260   H     0.42434   0.44348   0.43187   0.00000  Uiso   1.00
H261   H     0.26656   0.54157   0.55791   0.00000  Uiso   1.00
H262   H     0.32514   0.42597   0.50212   0.00000  Uiso   1.00
H263   H     0.28618   0.42593   0.55707   0.00000  Uiso   1.00
H264   H     0.37856   0.44070   0.47705   0.00000  Uiso   1.00
H265   H     0.18311   0.43217   0.63112   0.00000  Uiso   1.00
H266   H     0.20151   0.48470   0.78636   0.00000  Uiso   1.00
H267   H     0.15612   0.47058   0.76371   0.00000  Uiso   1.00
H268   H     0.21577   0.43731   0.57229   0.00000  Uiso   1.00
H269   H     0.24877   0.52360   0.68751   0.00000  Uiso   1.00
H270   H     0.27998   0.52921   0.62828   0.00000  Uiso   1.00
H271   H     0.20439   0.52480   0.72844   0.00000  Uiso   1.00
C272   C     0.30147   0.51625   0.51360   0.00000  Uiso   1.00
C273   C     0.34376   0.48440   0.46429   0.00000  Uiso   1.00
C274   C     0.39848   0.45957   0.42622   0.00000  Uiso   1.00
C275   C     0.27331   0.48373   0.56163   0.00000  Uiso   1.00
C276   C     0.31909   0.48395   0.49755   0.00000  Uiso   1.00
C277   C     0.27923   0.51625   0.54565   0.00000  Uiso   1.00
C278   C     0.31274   0.45148   0.51362   0.00000  Uiso   1.00
C279   C     0.29001   0.45134   0.54509   0.00000  Uiso   1.00
C280   C     0.20418   0.45354   0.63102   0.00000  Uiso   1.00
C281   C     0.19453   0.47189   0.70042   0.00000  Uiso   1.00
C282   C     0.17784   0.49276   0.76735   0.00000  Uiso   1.00
C283   C     0.25068   0.48334   0.59605   0.00000  Uiso   1.00
C284   C     0.26852   0.52499   0.18785   0.00000  Uiso   1.00
C285   C     0.26281   0.55630   0.13077   0.00000  Uiso   1.00
H286   H     0.17604   0.48580   0.00033   0.00000  Uiso   1.00
C287   C     0.25007   0.49153   0.12596   0.00000  Uiso   1.00
C288   C     0.25795   0.49216   0.16515   0.00000  Uiso   1.00
N289   N     0.19558   0.56550   0.94041   0.00000  Uiso   1.00
N290   N     0.28015   0.49660   0.24865   0.00000  Uiso   1.00
O291   O     0.18609   0.50487   0.93261   0.00000  Uiso   1.00
O292   O     0.28183   0.55731   0.24801   0.00000  Uiso   1.00
H293   H     0.13877   0.55273   0.91973   0.00000  Uiso   1.00
H294   H     0.14690   0.59841   0.94027   0.00000  Uiso   1.00
H295   H     0.19672   0.48289   0.06629   0.00000  Uiso   1.00
H296   H     0.26081   0.56835  -0.00906   0.00000  Uiso   1.00
H297   H     0.28251   0.56469   0.05673   0.00000  Uiso   1.00
H298   H     0.21205   0.58734   0.95353   0.00000  Uiso   1.00
H299   H     0.27905   0.58280   0.18601   0.00000  Uiso   1.00
H300   H     0.26675   0.49079   0.30525   0.00000  Uiso   1.00
H301   H     0.30176   0.52549   0.30142   0.00000  Uiso   1.00
H302   H     0.26407   0.58175   0.11846   0.00000  Uiso   1.00
H303   H     0.25521   0.46667   0.17692   0.00000  Uiso   1.00
H304   H     0.24231   0.46574   0.10953   0.00000  Uiso   1.00
H305   H     0.27428   0.47070   0.23443   0.00000  Uiso   1.00
C306   C     0.19992   0.50253   0.01209   0.00000  Uiso   1.00
C307   C     0.19985   0.53154   0.95217   0.00000  Uiso   1.00
C308   C     0.15977   0.57543   0.92195   0.00000  Uiso   1.00
C309   C     0.24142   0.52348   0.06702   0.00000  Uiso   1.00
C310   C     0.21681   0.52718  -0.00962   0.00000  Uiso   1.00
C311   C     0.21185   0.50085   0.04997   0.00000  Uiso   1.00
C312   C     0.24692   0.54929   0.00696   0.00000  Uiso   1.00
C313   C     0.25925   0.54727   0.04479   0.00000  Uiso   1.00
C314   C     0.27097   0.55694   0.16984   0.00000  Uiso   1.00
C315   C     0.27718   0.52717   0.22990   0.00000  Uiso   1.00
C316   C     0.29166   0.49787   0.28914   0.00000  Uiso   1.00
C317   C     0.25198   0.52366   0.10831   0.00000  Uiso   1.00
C318   C     0.05301   0.23170   0.55910   0.00000  Uiso   1.00
C319   C     0.11887   0.24481   0.54648   0.00000  Uiso   1.00
H320   H     0.14230   0.30961   0.40752   0.00000  Uiso   1.00
C321   C     0.07123   0.23976   0.49492   0.00000  Uiso   1.00
C322   C     0.04342   0.23343   0.52043   0.00000  Uiso   1.00
N323   N     0.24733   0.32838   0.43704   0.00000  Uiso   1.00
N324   N     0.98570   0.21460   0.57494   0.00000  Uiso   1.00
O325   O     0.21232   0.31254   0.38298   0.00000  Uiso   1.00
O326   O     0.02983   0.23729   0.62072   0.00000  Uiso   1.00
H327   H     0.24958   0.36822   0.39773   0.00000  Uiso   1.00
H328   H     0.25469   0.38520   0.44719   0.00000  Uiso   1.00
H329   H     0.09621   0.28558   0.44695   0.00000  Uiso   1.00
H330   H     0.23343   0.26262   0.47058   0.00000  Uiso   1.00
H331   H     0.18702   0.23527   0.50845   0.00000  Uiso   1.00
H332   H     0.25351   0.32375   0.46524   0.00000  Uiso   1.00
H333   H     0.09950   0.23633   0.60148   0.00000  Uiso   1.00
H334   H     1.00218   0.16062   0.55406   0.00000  Uiso   1.00
H335   H     0.97755   0.18561   0.51964   0.00000  Uiso   1.00
H336   H     0.14744   0.25089   0.55786   0.00000  Uiso   1.00
H337   H     0.01423   0.23162   0.50985   0.00000  Uiso   1.00
H338   H     0.06255   0.24025   0.46528   0.00000  Uiso   1.00
H339   H     0.96291   0.22776   0.58900   0.00000  Uiso   1.00
C340   C     0.15227   0.29301   0.42919   0.00000  Uiso   1.00
C341   C     0.21825   0.30939   0.41672   0.00000  Uiso   1.00
C342   C     0.26229   0.36215   0.42554   0.00000  Uiso   1.00
C343   C     0.13759   0.25849   0.48141   0.00000  Uiso   1.00
C344   C     0.19125   0.28831   0.43635   0.00000  Uiso   1.00
C345   C     0.12580   0.27888   0.45179   0.00000  Uiso   1.00
C346   C     0.20340   0.26702   0.46489   0.00000  Uiso   1.00
C347   C     0.17677   0.25175   0.48684   0.00000  Uiso   1.00
C348   C     0.09119   0.23703   0.57173   0.00000  Uiso   1.00
C349   C     0.02314   0.22760   0.58688   0.00000  Uiso   1.00
C350   C     0.97886   0.18036   0.54989   0.00000  Uiso   1.00
C351   C     0.10919   0.24657   0.50769   0.00000  Uiso   1.00
C352   C     0.00608   0.76038   0.80049   0.00000  Uiso   1.00
C353   C    -0.02392   0.82005   0.80000   0.00000  Uiso   1.00
H354   H     0.06751   0.94729   0.78837   0.00000  Uiso   1.00
C355   C     0.04000   0.81072   0.77785   0.00000  Uiso   1.00
C356   C     0.03870   0.77430   0.78543   0.00000  Uiso   1.00
N357   N     0.98277   1.00078   0.73222   0.00000  Uiso   1.00
N358   N     0.03412   0.70015   0.81250   0.00000  Uiso   1.00
O359   O     0.03339   0.00691   0.77563   0.00000  Uiso   1.00
O360   O    -0.02890   0.70753   0.80527   0.00000  Uiso   1.00
H361   H    -0.02773   0.05339   0.76089   0.00000  Uiso   1.00
H362   H     1.00325   0.05221   0.72108   0.00000  Uiso   1.00
H363   H     0.06708   0.88296   0.79905   0.00000  Uiso   1.00
H364   H     0.95211   0.93618   0.74181   0.00000  Uiso   1.00
H365   H     0.95207   0.87222   0.75215   0.00000  Uiso   1.00
H366   H     0.96946   0.98258   0.71086   0.00000  Uiso   1.00
H367   H     0.94935   0.77403   0.81942   0.00000  Uiso   1.00
H368   H     0.02250   0.64784   0.78323   0.00000  Uiso   1.00
H369   H     0.00813   0.65440   0.83199   0.00000  Uiso   1.00
H370   H     0.95160   0.83738   0.80628   0.00000  Uiso   1.00
H371   H     0.06294   0.75702   0.77847   0.00000  Uiso   1.00
H372   H     0.06526   0.82051   0.76566   0.00000  Uiso   1.00
H373   H     0.06109   0.71208   0.81569   0.00000  Uiso   1.00
C374   C     0.04217   0.93118   0.78009   0.00000  Uiso   1.00
C375   C     0.00990   0.98644   0.75809   0.00000  Uiso   1.00
C376   C     0.97727   0.04018   0.73154   0.00000  Uiso   1.00
C377   C     0.00956   0.87255   0.77655   0.00000  Uiso   1.00
C378   C     0.00999   0.94700   0.76366   0.00000  Uiso   1.00
C379   C     0.04205   0.89430   0.78611   0.00000  Uiso   1.00
C380   C     0.97768   0.92503   0.75380   0.00000  Uiso   1.00
C381   C    -0.02254   0.88831   0.76015   0.00000  Uiso   1.00
C382   C    -0.02513   0.78378   0.80772   0.00000  Uiso   1.00
C383   C     0.00273   0.72117   0.80626   0.00000  Uiso   1.00
C384   C     0.03071   0.66051   0.81255   0.00000  Uiso   1.00
C385   C     0.00860   0.83394   0.78487   0.00000  Uiso   1.00
C386   C     0.93571   0.25014   0.72018   0.00000  Uiso   1.00
C387   C     0.95027   0.31498   0.72194   0.00000  Uiso   1.00
H388   H     0.00633   0.38940   0.86436   0.00000  Uiso   1.00
C389   C    -0.01692   0.27923   0.76610   0.00000  Uiso   1.00
C390   C     0.96292   0.24810   0.75010   0.00000  Uiso   1.00
N391   N     0.04211   0.47939   0.82122   0.00000  Uiso   1.00
N392   N     0.92234   0.18306   0.70876   0.00000  Uiso   1.00
O393   O     0.00684   0.45920   0.86600   0.00000  Uiso   1.00
O394   O     0.87971   0.22404   0.69142   0.00000  Uiso   1.00
H395   H     0.01256   0.52944   0.82471   0.00000  Uiso   1.00
H396   H     0.03589   0.52007   0.86872   0.00000  Uiso   1.00
H397   H    -0.01344   0.33099   0.82994   0.00000  Uiso   1.00
H398   H     0.02208   0.43204   0.75730   0.00000  Uiso   1.00
H399   H     1.00282   0.37335   0.72291   0.00000  Uiso   1.00
H400   H     0.05654   0.47339   0.79591   0.00000  Uiso   1.00
H401   H     0.90967   0.28633   0.68265   0.00000  Uiso   1.00
H402   H     0.86743   0.15861   0.70528   0.00000  Uiso   1.00
H403   H     0.90606   0.12969   0.71612   0.00000  Uiso   1.00
H404   H     0.94411   0.34076   0.71120   0.00000  Uiso   1.00
H405   H     0.96769   0.22290   0.76240   0.00000  Uiso   1.00
H406   H     0.00334   0.27683   0.78953   0.00000  Uiso   1.00
H407   H     0.95038   0.17775   0.71717   0.00000  Uiso   1.00
C408   C     0.00656   0.38607   0.83348   0.00000  Uiso   1.00
C409   C     0.02181   0.45255   0.83526   0.00000  Uiso   1.00
C410   C     0.03862   0.51787   0.83728   0.00000  Uiso   1.00
C411   C    -0.00681   0.34739   0.77362   0.00000  Uiso   1.00
C412   C     0.01611   0.41550   0.81377   0.00000  Uiso   1.00
C413   C    -0.00458   0.35242   0.81373   0.00000  Uiso   1.00
C414   C     0.01566   0.40999   0.77362   0.00000  Uiso   1.00
C415   C     0.00417   0.37633   0.75381   0.00000  Uiso   1.00
C416   C     0.93021   0.28384   0.70583   0.00000  Uiso   1.00
C417   C     0.91096   0.21837   0.70579   0.00000  Uiso   1.00
C418   C     0.89729   0.15138   0.69859   0.00000  Uiso   1.00
C419   C     0.97619   0.31328   0.75298   0.00000  Uiso   1.00
C420   C     0.98287   0.76433  -0.02820   0.00000  Uiso   1.00
C421   C     0.92635   0.75826   0.00841   0.00000  Uiso   1.00
H422   H     0.78007   0.75226   0.92742   0.00000  Uiso   1.00
C423   C     0.92015   0.77711   0.94516   0.00000  Uiso   1.00
C424   C     0.95953   0.77509   0.94194   0.00000  Uiso   1.00
N425   N     0.72031   0.78925   0.02164   0.00000  Uiso   1.00
N426   N     0.04242   0.75957   0.93263   0.00000  Uiso   1.00
O427   O     0.72196   0.78640   0.95627   0.00000  Uiso   1.00
O428   O     0.04475   0.76314  -0.00182   0.00000  Uiso   1.00
H429   H     0.66887   0.80745  -0.00390   0.00000  Uiso   1.00
H430   H     0.66339   0.77518   0.02976   0.00000  Uiso   1.00
H431   H     0.84884   0.74556   0.92392   0.00000  Uiso   1.00
H432   H     0.79428   0.80440   0.04343   0.00000  Uiso   1.00
H433   H     0.86307   0.79768   0.03970   0.00000  Uiso   1.00
H434   H     0.73411   0.78188   0.04630   0.00000  Uiso   1.00
H435   H     0.98292   0.74726   0.02849   0.00000  Uiso   1.00
H436   H     0.09798   0.77322   0.95582   0.00000  Uiso   1.00
H437   H     0.09082   0.77627   0.90569   0.00000  Uiso   1.00
H438   H     0.91397   0.75143   0.03426   0.00000  Uiso   1.00
H439   H     0.97143   0.78279   0.91628   0.00000  Uiso   1.00
H440   H     0.90299   0.78592   0.92185   0.00000  Uiso   1.00
H441   H     0.02587   0.75311   0.90756   0.00000  Uiso   1.00
C442   C     0.79782   0.76229   0.95217   0.00000  Uiso   1.00
C443   C     0.73989   0.78511  -0.01365   0.00000  Uiso   1.00
C444   C     0.68005   0.79921   0.02364   0.00000  Uiso   1.00
C445   C     0.86128   0.77119  -0.01852   0.00000  Uiso   1.00
C446   C     0.78157   0.77896  -0.01436   0.00000  Uiso   1.00
C447   C     0.83718   0.75846   0.95012   0.00000  Uiso   1.00
C448   C     0.80565   0.79097   0.01736   0.00000  Uiso   1.00
C449   C     0.84512   0.78712   0.01528   0.00000  Uiso   1.00
C450   C     0.96578   0.75592   0.00508   0.00000  Uiso   1.00
C451   C     0.02486   0.76259  -0.03097   0.00000  Uiso   1.00
C452   C     0.08367   0.76014   0.92909   0.00000  Uiso   1.00
C453   C     0.90313   0.76873  -0.02162   0.00000  Uiso   1.00
C454   C     0.48839   0.56048   0.30236   0.00000  Uiso   1.00
C455   C     0.50227   0.62570   0.30885   0.00000  Uiso   1.00
H456   H     0.55687   0.68320   0.17480   0.00000  Uiso   1.00
C457   C     0.49726   0.59111   0.24612   0.00000  Uiso   1.00
C458   C     0.48950   0.55951   0.26254   0.00000  Uiso   1.00
N459   N     0.49435   0.77431   0.18585   0.00000  Uiso   1.00
N460   N     0.49109   0.49317   0.30282   0.00000  Uiso   1.00
O461   O     0.55082   0.75137   0.16753   0.00000  Uiso   1.00
O462   O     0.46530   0.52960   0.35073   0.00000  Uiso   1.00
H463   H     0.49994   0.78501   0.12858   0.00000  Uiso   1.00
H464   H     0.46064   0.80672   0.15264   0.00000  Uiso   1.00
H465   H     0.54980   0.63069   0.20974   0.00000  Uiso   1.00
H466   H     0.48577   0.74710   0.25482   0.00000  Uiso   1.00
H467   H     0.47689   0.69384   0.28821   0.00000  Uiso   1.00
H468   H     0.47094   0.77300   0.20289   0.00000  Uiso   1.00
H469   H     0.49367   0.59561   0.35612   0.00000  Uiso   1.00
H470   H     0.49107   0.46239   0.34999   0.00000  Uiso   1.00
H471   H     0.50275   0.43737   0.30517   0.00000  Uiso   1.00
H472   H     0.50736   0.65104   0.32724   0.00000  Uiso   1.00
H473   H     0.48361   0.53458   0.24379   0.00000  Uiso   1.00
H474   H     0.49718   0.58957   0.21531   0.00000  Uiso   1.00
H475   H     0.50523   0.49094   0.27721   0.00000  Uiso   1.00
C476   C     0.53986   0.68613   0.19990   0.00000  Uiso   1.00
C477   C     0.52348   0.74962   0.18754   0.00000  Uiso   1.00
C478   C     0.49101   0.79902   0.15650   0.00000  Uiso   1.00
C479   C     0.51196   0.65787   0.25104   0.00000  Uiso   1.00
C480   C     0.52126   0.71920   0.21136   0.00000  Uiso   1.00
C481   C     0.53541   0.65591   0.21958   0.00000  Uiso   1.00
C482   C     0.49955   0.72182   0.24426   0.00000  Uiso   1.00
C483   C     0.49491   0.69142   0.26385   0.00000  Uiso   1.00
C484   C     0.49448   0.59400   0.32534   0.00000  Uiso   1.00
C485   C     0.48059   0.52691   0.32008   0.00000  Uiso   1.00
C486   C     0.48404   0.45914   0.31879   0.00000  Uiso   1.00
C487   C     0.50401   0.62450   0.26905   0.00000  Uiso   1.00
loop_
_geom_bond_atom_site_label_1
_geom_bond_atom_site_label_2
_geom_bond_distance
_geom_bond_site_symmetry_2
_ccdc_geom_bond_type
Yb0    O3      2.187   .     S
Yb0    O4      2.214   .     S
Yb0    O5      2.112   .     S
Yb0    O7      2.175   .     S
Yb0    O8      2.162   .     S
Yb0    O12     2.162   .     S
Yb1    O6      2.215   .     S
Yb1    O9      2.140   .     S
Yb1    O10     2.167   .     S
Yb1    O13     2.119   .     S
Yb1    O14     2.175   .     S
Yb1    O16     2.147   .     S
C2     O14     1.276   .     A
C2     O16     1.267   .     A
C2     C452    1.491   .     S
O3     C11     1.249   .     A
O4     C11     1.251   .     A
O5     C15     1.281   .     A
O6     C15     1.291   .     A
O7     C17     1.279   .     A
O8     C17     1.273   .     A
O9     C18     1.278   .     A
O10    C18     1.278   .     A
C11    C410    1.496   .     S
O12    C19     1.281   .     A
O13    C19     1.276   .     A
C15    C384    1.495   .     S
C17    C282    1.492   .     S
C18    C112    1.494   .     S
C19    C308    1.494   .     S
Yb20   O23     2.107   .     S
Yb20   O24     2.098   .     S
Yb20   O25     2.175   .     S
Yb20   O27     2.100   .     S
Yb20   O28     2.103   .     S
Yb20   O32     2.171   .     S
Yb21   O26     2.166   .     S
Yb21   O29     2.103   .     S
Yb21   O30     2.097   .     S
Yb21   O33     2.150   .     S
Yb21   O34     2.095   .     S
Yb21   O36     2.114   .     S
C22    O34     1.288   .     A
C22    O36     1.292   .     A
C22    C146    1.496   .     S
O23    C31     1.292   .     A
O24    C31     1.290   .     A
O25    C35     1.273   .     A
O26    C35     1.272   .     A
O27    C37     1.292   .     A
O28    C37     1.290   .     A
O29    C38     1.292   .     A
O30    C38     1.291   .     A
C31    C214    1.497   .     S
O32    C39     1.274   .     A
O33    C39     1.273   .     A
C35    C248    1.493   .     S
C37    C444    1.495   .     S
C38    C478    1.495   .     S
C39    C104    1.495   .     S
Yb40   O43     2.101   .     S
Yb40   O44     2.104   .     S
Yb40   O45     2.171   .     S
Yb40   O47     2.107   .     S
Yb40   O48     2.100   .     S
Yb40   O52     2.178   .     S
Yb41   O46     2.149   .     S
Yb41   O49     2.101   .     S
Yb41   O50     2.091   .     S
Yb41   O53     2.164   .     S
Yb41   O54     2.096   .     S
Yb41   O56     2.116   .     S
C42    O54     1.288   .     A
C42    O56     1.293   .     A
C42    C172    1.498   .     S
O43    C51     1.291   .     A
O44    C51     1.291   .     A
O45    C55     1.271   .     A
O46    C55     1.268   .     A
O47    C57     1.293   .     A
O48    C57     1.289   .     A
O49    C58     1.292   .     A
O50    C58     1.291   .     A
C51    C206    1.497   .     S
O52    C59     1.277   .     A
O53    C59     1.277   .     A
C55    C240    1.494   .     S
C57    C376    1.500   .     S
C58    C350    1.495   .     S
C59    C418    1.497   .     S
Yb60   O63     2.164   .     S
Yb60   O64     2.160   .     S
Yb60   O65     2.167   .     S
Yb60   O67     2.103   .     S
Yb60   O68     2.107   .     S
Yb60   O72     2.229   .     S
Yb61   O66     2.180   .     S
Yb61   O69     2.098   .     S
Yb61   O70     2.085   .     S
Yb61   O73     2.159   .     S
Yb61   O74     2.109   .     S
Yb61   O76     2.096   .     S
C62    O74     1.292   .     A
C62    O76     1.288   .     A
C62    C180    1.493   .     S
O63    C71     1.274   .     A
O64    C71     1.265   .     A
O65    C75     1.268   .     A
O66    C75     1.276   .     A
O67    C77     1.289   .     A
O68    C77     1.290   .     A
O69    C78     1.291   .     A
O70    C78     1.289   .     A
C71    C486    1.492   .     S
O72    C79     1.289   .     A
O73    C79     1.268   .     A
C75    C138    1.491   .     S
C77    C316    1.496   .     S
C78    C342    1.487   .     S
C79    C274    1.497   .     S
C80    C84     1.408   .     A
C80    C110    1.407   .     A
C80    C111    1.488   .     S
C81    C110    1.399   .     A
C81    C113    1.405   .     A
C81    H98     1.082   1_556 S
H82    C102    1.083   .     S
C83    C84     1.397   .     A
C83    H100    1.083   .     S
C83    C113    1.405   .     A
C84    H99     1.082   .     S
N85    H94     1.044   .     S
N85    C103    1.372   .     S
N85    C104    1.470   .     S
N86    H101    1.045   .     S
N86    C111    1.368   .     S
N86    C112    1.463   .     S
O87    C103    1.218   .     D
O88    C111    1.221   .     D
H89    C104    1.105   .     S
H90    C104    1.112   .     S
H91    C107    1.083   1_556 S
H92    C108    1.081   .     S
H93    C109    1.083   .     S
H95    C110    1.083   .     S
H96    C112    1.113   .     S
H97    C112    1.110   .     S
H98    C81     1.082   1_554 S
C102   C106    1.405   .     A
C102   C107    1.397   .     A
C103   C106    1.491   .     S
C105   C107    1.406   .     A
C105   C109    1.404   .     A
C105   C113    1.486   1_554 S
C106   C108    1.408   .     A
C107   H91     1.083   1_554 S
C108   C109    1.399   .     A
C113   C105    1.486   1_556 S
C114   C118    1.406   .     A
C114   C144    1.405   .     A
C114   C145    1.484   .     S
C115   H132    1.083   .     S
C115   C144    1.398   .     A
C115   C147    1.405   .     A
H116   C136    1.083   .     S
C117   C118    1.397   .     A
C117   H134    1.083   .     S
C117   C147    1.404   .     A
C118   H133    1.082   .     S
N119   H128    1.044   .     S
N119   C137    1.372   .     S
N119   C138    1.462   .     S
N120   H135    1.044   .     S
N120   C145    1.373   .     S
N120   C146    1.465   1_545 S
O121   C137    1.221   .     D
O122   C145    1.219   .     D
H123   C138    1.111   .     S
H124   C138    1.107   .     S
H125   C141    1.082   .     S
H126   C142    1.083   .     S
H127   C143    1.083   .     S
H129   C144    1.083   .     S
H130   C146    1.111   .     S
H131   C146    1.109   .     S
C136   C140    1.404   .     A
C136   C141    1.396   .     A
C137   C140    1.483   .     S
C139   C141    1.405   .     A
C139   C143    1.405   .     A
C139   C147    1.484   .     S
C140   C142    1.408   .     A
C142   C143    1.398   .     A
C146   N120    1.465   1_565 S
C148   C152    1.407   .     A
C148   C178    1.405   .     A
C148   C179    1.484   .     S
C149   H166    1.083   .     S
C149   C178    1.398   .     A
C149   C181    1.406   .     A
H150   C170    1.083   .     S
C151   C152    1.398   .     A
C151   H168    1.083   .     S
C151   C181    1.406   .     A
C152   H167    1.082   .     S
N153   H162    1.044   .     S
N153   C171    1.373   .     S
N153   C172    1.465   .     S
N154   H169    1.046   .     S
N154   C179    1.371   .     S
N154   C180    1.464   .     S
O155   C171    1.223   .     D
O156   C179    1.224   .     D
H157   C172    1.110   .     S
H158   C172    1.111   .     S
H159   C175    1.083   .     S
H160   C176    1.081   .     S
H161   C177    1.083   .     S
H163   C178    1.084   .     S
H164   C180    1.112   .     S
H165   C180    1.110   .     S
C170   C174    1.406   .     A
C170   C175    1.396   .     A
C171   C174    1.488   .     S
C173   C175    1.404   .     A
C173   C177    1.406   .     A
C173   C181    1.486   .     S
C174   C176    1.408   .     A
C176   C177    1.400   .     A
C182   C186    1.406   .     A
C182   C212    1.407   1_565 A
C182   C213    1.486   1_556 S
C183   H200    1.083   .     S
C183   C212    1.399   .     A
C183   C215    1.405   .     A
H184   C204    1.084   .     S
C185   C186    1.398   .     A
C185   H202    1.083   .     S
C185   C215    1.405   1_565 A
C186   H201    1.082   .     S
N187   H196    1.045   .     S
N187   C205    1.439   .     S
N187   C206    1.465   .     S
N188   H203    1.045   .     S
N188   C213    1.436   .     S
N188   C214    1.464   .     S
O189   C205    1.220   1_565 D
O190   C213    1.220   1_545 D
H191   C206    1.112   .     S
H192   C206    1.111   .     S
H193   C209    1.083   .     S
H194   C210    1.081   .     S
H195   C211    1.083   .     S
H197   C212    1.083   .     S
H198   C214    1.112   .     S
H199   C214    1.111   .     S
C204   C209    1.397   .     A
C204   C208    1.407   1_565 A
C205   C208    1.487   .     S
C205   O189    1.220   1_545 D
C207   C211    1.406   .     A
C207   C215    1.486   .     S
C207   C209    1.405   1_545 A
C208   C210    1.407   .     A
C208   C204    1.407   1_545 A
C209   C207    1.405   1_565 A
C210   C211    1.400   .     A
C212   C182    1.407   1_545 A
C213   C182    1.486   1_554 S
C213   O190    1.220   1_565 D
C215   C185    1.405   1_545 A
C216   C220    1.404   .     A
C216   C246    1.406   .     A
C216   C247    1.481   .     S
C217   H234    1.083   .     S
C217   C246    1.399   1_545 A
C217   C249    1.405   1_545 A
H218   C238    1.083   1_565 S
C219   C220    1.396   .     A
C219   H236    1.083   .     S
C219   C249    1.405   .     A
C220   H235    1.082   .     S
N221   H230    1.042   .     S
N221   C239    1.373   .     S
N221   C240    1.464   .     S
N222   H237    1.044   .     S
N222   C247    1.374   .     S
N222   C248    1.464   .     S
O223   C239    1.221   .     D
O224   C247    1.219   .     D
H225   C240    1.111   .     S
H226   C240    1.109   .     S
H227   C243    1.083   .     S
H228   C244    1.081   .     S
H229   C245    1.083   .     S
H231   C246    1.084   1_545 S
H232   C248    1.101   .     S
H233   C248    1.111   .     S
C238   C242    1.404   .     A
C238   H218    1.083   1_545 S
C238   C243    1.393   1_545 A
C239   C242    1.483   .     S
C241   C245    1.405   .     A
C241   C243    1.404   1_545 A
C241   C249    1.483   1_545 S
C242   C244    1.408   .     A
C243   C238    1.393   1_565 A
C243   C241    1.404   1_565 A
C244   C245    1.400   .     A
C246   C217    1.399   1_565 A
C246   H231    1.084   1_565 S
C249   C217    1.405   1_565 A
C249   C241    1.483   1_565 S
C250   C254    1.410   .     A
C250   C280    1.407   .     A
C250   C281    1.489   .     S
C251   H268    1.083   .     S
C251   C280    1.396   .     A
C251   C283    1.403   .     A
H252   C272    1.083   .     S
C253   C254    1.399   .     A
C253   H270    1.083   .     S
C253   C283    1.403   .     A
C254   H269    1.080   .     S
N255   H264    1.044   .     S
N255   C273    1.375   .     S
N255   C274    1.464   .     S
N256   H271    1.044   .     S
N256   C281    1.374   .     S
N256   C282    1.466   .     S
O257   C273    1.222   .     D
O258   C281    1.222   .     D
H259   C274    1.112   .     S
H260   C274    1.109   .     S
H261   C277    1.083   .     S
H262   C278    1.076   .     S
H263   C279    1.084   .     S
H265   C280    1.084   .     S
H266   C282    1.112   .     S
H267   C282    1.113   .     S
C272   C276    1.408   .     A
C272   C277    1.401   .     A
C273   C276    1.489   .     S
C275   C277    1.404   .     A
C275   C279    1.402   .     A
C275   C283    1.480   .     S
C276   C278    1.407   .     A
C278   C279    1.395   .     A
C284   C288    1.411   .     A
C284   C314    1.409   .     A
C284   C315    1.497   .     S
C285   H302    1.082   .     S
C285   C314    1.396   .     A
C285   C317    1.404   .     A
H286   C306    1.083   .     S
C287   C288    1.399   .     A
C287   H304    1.083   .     S
C287   C317    1.406   .     A
C288   H303    1.078   .     S
N289   H298    1.044   .     S
N289   C307    1.371   .     S
N289   C308    1.462   .     S
N290   H305    1.041   .     S
N290   C315    1.376   .     S
N290   C316    1.466   .     S
O291   C307    1.221   .     D
O292   C315    1.221   .     D
H293   C308    1.112   .     S
H294   C308    1.109   .     S
H295   C311    1.083   .     S
H296   C312    1.082   .     S
H297   C313    1.082   .     S
H299   C314    1.083   .     S
H300   C316    1.111   .     S
H301   C316    1.111   .     S
C306   C310    1.404   .     A
C306   C311    1.395   .     A
C307   C310    1.481   1_556 S
C309   C311    1.406   .     A
C309   C313    1.409   .     A
C309   C317    1.490   .     S
C310   C312    1.404   .     A
C310   C307    1.481   1_554 S
C312   C313    1.399   .     A
C318   C322    1.403   .     A
C318   C348    1.406   .     A
C318   C349    1.485   .     S
C319   H336    1.082   .     S
C319   C348    1.399   .     A
C319   C351    1.408   .     A
H320   C340    1.083   .     S
C321   C322    1.394   .     A
C321   H338    1.082   .     S
C321   C351    1.407   .     A
C322   H337    1.079   .     S
N323   H332    1.045   .     S
N323   C341    1.371   .     S
N323   C342    1.460   .     S
N324   H339    1.046   .     S
N324   C350    1.466   .     S
N324   C349    1.434   1_655 S
O325   C341    1.221   .     D
O326   C349    1.220   .     D
H327   C342    1.111   .     S
H328   C342    1.112   .     S
H329   C345    1.081   .     S
H330   C346    1.083   .     S
H331   C347    1.082   .     S
H333   C348    1.083   .     S
H334   C350    1.112   .     S
H335   C350    1.108   .     S
C340   C344    1.399   .     A
C340   C345    1.392   .     A
C341   C344    1.474   .     S
C343   C345    1.408   .     A
C343   C347    1.410   .     A
C343   C351    1.492   .     S
C344   C346    1.403   .     A
C346   C347    1.400   .     A
C349   N324    1.434   1_455 S
C352   C356    1.407   .     A
C352   C382    1.406   .     A
C352   C383    1.489   .     S
C353   C382    1.397   .     A
C353   C385    1.405   .     A
C353   H370    1.084   1_455 S
H354   C374    1.084   .     S
C355   C356    1.401   .     A
C355   H372    1.084   .     S
C355   C385    1.406   .     A
C356   H371    1.081   .     S
N357   H366    1.045   .     S
N357   C375    1.439   1_655 S
N357   C376    1.467   1_565 S
N358   H373    1.044   .     S
N358   C383    1.373   .     S
N358   C384    1.466   .     S
O359   C375    1.220   1_545 D
O360   C383    1.220   .     D
H361   C376    1.111   1_455 S
H362   C376    1.112   .     S
H363   C379    1.083   .     S
H364   C380    1.081   .     S
H365   C381    1.083   1_655 S
H367   C382    1.083   1_655 S
H368   C384    1.111   .     S
H369   C384    1.111   .     S
H370   C353    1.084   1_655 S
C374   C378    1.409   .     A
C374   C379    1.401   .     A
C375   C378    1.490   .     S
C375   N357    1.439   1_455 S
C375   O359    1.220   1_565 D
C376   N357    1.467   1_545 S
C376   H361    1.111   1_655 S
C377   C379    1.405   .     A
C377   C381    1.405   .     A
C377   C385    1.488   .     S
C378   C380    1.406   1_455 A
C380   C378    1.406   1_655 A
C380   C381    1.398   1_655 A
C381   H365    1.083   1_455 S
C381   C380    1.398   1_455 A
C382   H367    1.083   1_455 S
C386   C390    1.407   .     A
C386   C416    1.407   .     A
C386   C417    1.489   .     S
C387   H404    1.083   .     S
C387   C416    1.399   .     A
C387   C419    1.406   .     A
H388   C408    1.083   .     S
C389   H406    1.083   .     S
C389   C390    1.399   1_455 A
C389   C419    1.406   1_455 A
C390   H405    1.081   .     S
C390   C389    1.399   1_655 A
N391   H400    1.045   .     S
N391   C409    1.373   .     S
N391   C410    1.469   .     S
N392   H407    1.044   .     S
N392   C417    1.375   .     S
N392   C418    1.466   .     S
O393   C409    1.223   .     D
O394   C417    1.221   .     D
H395   C410    1.110   .     S
H396   C410    1.111   .     S
H397   C413    1.083   .     S
H398   C414    1.081   .     S
H399   C415    1.083   1_655 S
H401   C416    1.083   .     S
H402   C418    1.111   .     S
H403   C418    1.105   .     S
C408   C412    1.406   .     A
C408   C413    1.397   .     A
C409   C412    1.490   .     S
C411   C413    1.406   .     A
C411   C415    1.407   .     A
C411   C419    1.490   1_455 S
C412   C414    1.408   .     A
C414   C415    1.401   .     A
C415   H399    1.083   1_455 S
C419   C389    1.406   1_655 A
C419   C411    1.490   1_655 S
C420   C450    1.408   .     A
C420   C424    1.406   1_554 A
C420   C451    1.485   1_655 S
C421   H438    1.083   .     S
C421   C450    1.398   .     A
C421   C453    1.404   .     A
H422   C442    1.083   .     S
C423   C424    1.396   .     A
C423   H440    1.083   .     S
C423   C453    1.405   1_556 A
C424   H439    1.081   .     S
C424   C420    1.406   1_556 A
N425   H434    1.045   .     S
N425   C443    1.439   .     S
N425   C444    1.465   .     S
N426   H441    1.044   .     S
N426   C452    1.462   .     S
N426   C451    1.440   1_556 S
O427   C443    1.220   1_556 D
O428   C451    1.220   .     D
H429   C444    1.111   .     S
H430   C444    1.111   .     S
H431   C447    1.083   .     S
H432   C448    1.082   .     S
H433   C449    1.083   .     S
H435   C450    1.083   .     S
H436   C452    1.110   .     S
H437   C452    1.111   .     S
C442   C447    1.395   .     A
C442   C446    1.406   1_556 A
C443   C446    1.484   .     S
C443   O427    1.220   1_554 D
C445   C449    1.405   .     A
C445   C453    1.483   .     S
C445   C447    1.404   1_554 A
C446   C448    1.406   .     A
C446   C442    1.406   1_554 A
C447   C445    1.404   1_556 A
C448   C449    1.399   .     A
C451   C420    1.485   1_455 S
C451   N426    1.440   1_554 S
C453   C423    1.405   1_554 A
C454   C458    1.405   .     A
C454   C484    1.406   .     A
C454   C485    1.483   .     S
C455   H472    1.083   .     S
C455   C484    1.399   .     A
C455   C487    1.405   .     A
H456   C476    1.083   .     S
C457   C458    1.394   .     A
C457   H474    1.083   .     S
C457   C487    1.405   .     A
C458   H473    1.081   .     S
N459   H468    1.043   .     S
N459   C477    1.373   .     S
N459   C478    1.461   .     S
N460   H475    1.044   .     S
N460   C485    1.374   .     S
N460   C486    1.461   .     S
O461   C477    1.222   .     D
O462   C485    1.221   .     D
H463   C478    1.112   .     S
H464   C478    1.112   .     S
H465   C481    1.083   .     S
H466   C482    1.082   .     S
H467   C483    1.083   .     S
H469   C484    1.083   .     S
H470   C486    1.112   .     S
H471   C486    1.112   .     S
C476   C480    1.405   .     A
C476   C481    1.394   .     A
C477   C480    1.484   .     S
C479   C481    1.404   .     A
C479   C483    1.405   .     A
C479   C487    1.483   .     S
C480   C482    1.409   .     A
C482   C483    1.399   .     A
