data_lcy+N144+E161
_audit_creation_date              2025-01-21
_audit_creation_method            'Materials Studio'
_symmetry_space_group_name_H-M    'P1'
_symmetry_Int_Tables_number       1
_symmetry_cell_setting            triclinic
loop_
_symmetry_equiv_pos_as_xyz
  x,y,z
_cell_length_a                    40.1089
_cell_length_b                    39.2678
_cell_length_c                    38.5945
_cell_angle_alpha                 86.4188
_cell_angle_beta                  87.5642
_cell_angle_gamma                 84.3071
loop_
_atom_site_label
_atom_site_type_symbol
_atom_site_fract_x
_atom_site_fract_y
_atom_site_fract_z
_atom_site_U_iso_or_equiv
_atom_site_adp_type
_atom_site_occupancy
C0     C     0.18765   0.67935   0.91326   0.00000  Uiso   1.00
Er1    Er    0.12491   0.60039   0.84100   0.00000  Uiso   1.00
Er2    Er    0.15367   0.64187   0.85995   0.00000  Uiso   1.00
C3     C     0.08634   0.63879   0.89852   0.00000  Uiso   1.00
O4     O     0.17591   0.60536   0.89840   0.00000  Uiso   1.00
C5     C     0.10732   0.67023   0.80388   0.00000  Uiso   1.00
C6     C     0.19162   0.60586   0.80140   0.00000  Uiso   1.00
C7     C     0.07466   0.56199   0.84048   0.00000  Uiso   1.00
O8     O     0.16786   0.66502   0.93248   0.00000  Uiso   1.00
O9     O     0.18279   0.68237   0.87766   0.00000  Uiso   1.00
O10    O     0.19440   0.62934   0.82200   0.00000  Uiso   1.00
O11    O     0.16594   0.58946   0.80409   0.00000  Uiso   1.00
O12    O     0.13020   0.67812   0.82270   0.00000  Uiso   1.00
O13    O     0.10055   0.63906   0.80410   0.00000  Uiso   1.00
C14    C     0.16815   0.57478   0.90172   0.00000  Uiso   1.00
O15    O     0.14908   0.56412   0.87995   0.00000  Uiso   1.00
O16    O     0.11209   0.65542   0.89656   0.00000  Uiso   1.00
O17    O     0.08500   0.61374   0.87923   0.00000  Uiso   1.00
O18    O     0.10030   0.55914   0.82062   0.00000  Uiso   1.00
O19    O     0.07522   0.58623   0.86066   0.00000  Uiso   1.00
C20    C     0.69085   0.90902   0.18953   0.00000  Uiso   1.00
Er21   Er    0.62081   0.85758   0.09691   0.00000  Uiso   1.00
Er22   Er    0.65554   0.86803   0.13906   0.00000  Uiso   1.00
C23    C     0.66767   0.91142   0.07361   0.00000  Uiso   1.00
O24    O     0.61789   0.90617   0.15825   0.00000  Uiso   1.00
C25    C     0.68726   0.81478   0.09155   0.00000  Uiso   1.00
C26    C     0.61170   0.81221   0.16364   0.00000  Uiso   1.00
C27    C     0.57139   0.82775   0.07273   0.00000  Uiso   1.00
O28    O     0.68030   0.93229   0.16935   0.00000  Uiso   1.00
O29    O     0.68942   0.87513   0.18158   0.00000  Uiso   1.00
O30    O     0.63469   0.82898   0.17348   0.00000  Uiso   1.00
O31    O     0.60030   0.81889   0.13324   0.00000  Uiso   1.00
O32    O     0.69249   0.83049   0.11828   0.00000  Uiso   1.00
O33    O     0.65857   0.81856   0.07805   0.00000  Uiso   1.00
C34    C     0.59079   0.91406   0.14245   0.00000  Uiso   1.00
O35    O     0.58463   0.89786   0.11620   0.00000  Uiso   1.00
O36    O     0.67772   0.90635   0.10442   0.00000  Uiso   1.00
O37    O     0.64404   0.89562   0.06391   0.00000  Uiso   1.00
O38    O     0.58248   0.82115   0.10303   0.00000  Uiso   1.00
O39    O     0.58747   0.84947   0.05549   0.00000  Uiso   1.00
C40    C     0.90291   0.18901   0.69685   0.00000  Uiso   1.00
Er41   Er    0.84348   0.12863   0.60744   0.00000  Uiso   1.00
Er42   Er    0.85544   0.15114   0.65947   0.00000  Uiso   1.00
C43    C     0.89248   0.08060   0.65119   0.00000  Uiso   1.00
O44    O     0.89550   0.17576   0.62972   0.00000  Uiso   1.00
C45    C     0.79660   0.10715   0.66553   0.00000  Uiso   1.00
C46    C     0.80441   0.19779   0.61958   0.00000  Uiso   1.00
C47    C     0.84827   0.08073   0.56276   0.00000  Uiso   1.00
O48    O     0.89856   0.16562   0.71832   0.00000  Uiso   1.00
O49    O     0.89565   0.18569   0.66221   0.00000  Uiso   1.00
O50    O     0.81943   0.19529   0.64813   0.00000  Uiso   1.00
O51    O     0.81152   0.17542   0.59741   0.00000  Uiso   1.00
O52    O     0.81480   0.12429   0.68241   0.00000  Uiso   1.00
O53    O     0.80159   0.10490   0.63306   0.00000  Uiso   1.00
C54    C     0.90298   0.17030   0.59772   0.00000  Uiso   1.00
O55    O     0.88565   0.15148   0.58159   0.00000  Uiso   1.00
O56    O     0.89016   0.10572   0.67084   0.00000  Uiso   1.00
O57    O     0.87659   0.08314   0.62294   0.00000  Uiso   1.00
O58    O     0.83165   0.10950   0.55814   0.00000  Uiso   1.00
O59    O     0.86322   0.07761   0.59131   0.00000  Uiso   1.00
C60    C     0.30546   0.31959   0.43408   0.00000  Uiso   1.00
Er61   Er    0.39408   0.38057   0.35265   0.00000  Uiso   1.00
Er62   Er    0.35622   0.34730   0.37887   0.00000  Uiso   1.00
C63    C     0.42108   0.34044   0.41655   0.00000  Uiso   1.00
O64    O     0.33449   0.38935   0.40855   0.00000  Uiso   1.00
C65    C     0.39945   0.30875   0.32603   0.00000  Uiso   1.00
C66    C     0.33075   0.38719   0.31350   0.00000  Uiso   1.00
C67    C     0.42388   0.43755   0.34571   0.00000  Uiso   1.00
O68    O     0.32097   0.33549   0.45301   0.00000  Uiso   1.00
O69    O     0.31803   0.31349   0.40060   0.00000  Uiso   1.00
O70    O     0.32350   0.36344   0.33576   0.00000  Uiso   1.00
O71    O     0.35755   0.40144   0.31566   0.00000  Uiso   1.00
O72    O     0.37810   0.30440   0.35059   0.00000  Uiso   1.00
O73    O     0.40914   0.33834   0.31916   0.00000  Uiso   1.00
C74    C     0.34983   0.41592   0.40985   0.00000  Uiso   1.00
O75    O     0.37536   0.41985   0.38935   0.00000  Uiso   1.00
O76    O     0.39104   0.33236   0.42029   0.00000  Uiso   1.00
O77    O     0.42990   0.35882   0.39008   0.00000  Uiso   1.00
O78    O     0.40095   0.43218   0.36862   0.00000  Uiso   1.00
O79    O     0.43075   0.41233   0.32707   0.00000  Uiso   1.00
H80    H     0.23464   0.71433   0.87806   0.00000  Uiso   1.00
C81    C     0.54250   0.81277   0.05960   0.00000  Uiso   1.00
C82    C     0.52258   0.79312   0.08206   0.00000  Uiso   1.00
C83    C     0.49397   0.78036   0.07017   0.00000  Uiso   1.00
C84    C     0.48526   0.78733   0.03521   0.00000  Uiso   1.00
C85    C     0.50540   0.80683   0.01243   0.00000  Uiso   1.00
C86    C     0.53384   0.81943   0.02486   0.00000  Uiso   1.00
C87    C     0.47243   0.76003   0.09488   0.00000  Uiso   1.00
C88    C     0.49633   0.81470   0.97515   0.00000  Uiso   1.00
C89    C     0.42594   0.79822   0.02531   0.00000  Uiso   1.00
C90    C     0.39566   0.78835   0.01414   0.00000  Uiso   1.00
C91    C     0.39534   0.75574   1.00099   0.00000  Uiso   1.00
C92    C     0.42518   0.73361   0.99909   0.00000  Uiso   1.00
C93    C     0.45492   0.74466   0.01053   0.00000  Uiso   1.00
C94    C     0.36582   0.81027   0.01584   0.00000  Uiso   1.00
C95    C     0.33598   0.79997   1.00452   0.00000  Uiso   1.00
C96    C     0.33533   0.76750   0.99134   0.00000  Uiso   1.00
C97    C     0.36510   0.74526   0.98967   0.00000  Uiso   1.00
C98    C     0.36472   0.71260   0.97662   0.00000  Uiso   1.00
C99    C     0.39461   0.69072   0.97484   0.00000  Uiso   1.00
C100   C     0.42453   0.70114   0.98590   0.00000  Uiso   1.00
C101   C     0.30568   0.75668   0.97955   0.00000  Uiso   1.00
C102   C     0.33440   0.70279   0.96547   0.00000  Uiso   1.00
C103   C     0.27536   0.71467   0.95391   0.00000  Uiso   1.00
C104   C     0.25898   0.68967   1.01426   0.00000  Uiso   1.00
C105   C     0.22397   0.68674   0.96283   0.00000  Uiso   1.00
C106   C     0.29234   0.73913   0.89421   0.00000  Uiso   1.00
C107   C     0.23953   0.70984   0.90545   0.00000  Uiso   1.00
C108   C     0.26853   0.72093   0.91836   0.00000  Uiso   1.00
C109   C     0.25282   0.69751   0.97626   0.00000  Uiso   1.00
C110   C     0.21717   0.69260   0.92747   0.00000  Uiso   1.00
H111   H     0.31762   0.72478   0.89453   0.00000  Uiso   1.00
N112   N     0.45469   0.77640   0.02336   0.00000  Uiso   1.00
N113   N     0.30576   0.72487   0.96683   0.00000  Uiso   1.00
H114   H     0.29405   0.76536   0.90276   0.00000  Uiso   1.00
H115   H     0.52886   0.78845   0.10907   0.00000  Uiso   1.00
H116   H     0.54901   0.83489   0.00752   0.00000  Uiso   1.00
H117   H     0.48213   0.75756   0.12155   0.00000  Uiso   1.00
H118   H     0.44651   0.77290   0.09621   0.00000  Uiso   1.00
H119   H     0.47176   0.73389   0.08568   0.00000  Uiso   1.00
H120   H     0.47127   0.82943   0.97397   0.00000  Uiso   1.00
H121   H     0.51471   0.83019   0.96074   0.00000  Uiso   1.00
H122   H     0.49578   0.79044   0.96197   0.00000  Uiso   1.00
O123   O     0.48427   0.72354   0.00886   0.00000  Uiso   1.00
O124   O     0.42672   0.82990   0.03824   0.00000  Uiso   1.00
H125   H     0.36544   0.83547   0.02586   0.00000  Uiso   1.00
H126   H     0.44713   0.68368   0.98405   0.00000  Uiso   1.00
H127   H     0.31346   0.81755   1.00614   0.00000  Uiso   1.00
H128   H     0.26047   0.66151   0.02007   0.00000  Uiso   1.00
H129   H     0.28257   0.69886   0.02233   0.00000  Uiso   1.00
H130   H     0.20705   0.67318   0.98005   0.00000  Uiso   1.00
H131   H     0.39501   0.66553   0.96480   0.00000  Uiso   1.00
H132   H     0.28398   0.74130   0.86702   0.00000  Uiso   1.00
O133   O     0.33346   0.67097   0.95287   0.00000  Uiso   1.00
O134   O     0.27650   0.77811   0.98060   0.00000  Uiso   1.00
H135   H     0.23791   0.70210   0.02999   0.00000  Uiso   1.00
H136   H     0.58320   0.93673   0.20693   0.00000  Uiso   1.00
C137   C     0.41316   0.27916   0.30645   0.00000  Uiso   1.00
C138   C     0.41943   0.28243   0.27046   0.00000  Uiso   1.00
C139   C     0.43098   0.25358   0.25192   0.00000  Uiso   1.00
C140   C     0.43736   0.22126   0.26997   0.00000  Uiso   1.00
C141   C     0.43177   0.21815   0.30636   0.00000  Uiso   1.00
C142   C     0.41926   0.24701   0.32413   0.00000  Uiso   1.00
C143   C     0.43578   0.25719   0.21301   0.00000  Uiso   1.00
C144   C     0.43942   0.18426   0.32634   0.00000  Uiso   1.00
C145   C     0.48356   0.18705   0.24239   0.00000  Uiso   1.00
C146   C     0.49711   0.15706   0.22687   0.00000  Uiso   1.00
C147   C     0.47605   0.13122   0.22203   0.00000  Uiso   1.00
C148   C     0.44168   0.13632   0.23138   0.00000  Uiso   1.00
C149   C     0.42900   0.16733   0.24554   0.00000  Uiso   1.00
C150   C     0.53122   0.15202   0.21675   0.00000  Uiso   1.00
C151   C     0.54437   0.12151   0.20247   0.00000  Uiso   1.00
C152   C     0.52381   0.09512   0.19857   0.00000  Uiso   1.00
C153   C     0.48952   0.10000   0.20833   0.00000  Uiso   1.00
C154   C     0.46881   0.07350   0.20499   0.00000  Uiso   1.00
C155   C     0.43449   0.07895   0.21422   0.00000  Uiso   1.00
C156   C     0.42103   0.11011   0.22702   0.00000  Uiso   1.00
C157   C     0.53681   0.06364   0.18575   0.00000  Uiso   1.00
C158   C     0.48319   0.04201   0.19307   0.00000  Uiso   1.00
C159   C     0.53171   0.00452   0.17422   0.00000  Uiso   1.00
C160   C     0.51112   0.01646   0.11242   0.00000  Uiso   1.00
C161   C     0.54774   0.96350   0.13019   0.00000  Uiso   1.00
C162   C     0.55118   0.99237   0.23590   0.00000  Uiso   1.00
C163   C     0.56805   0.95258   0.18837   0.00000  Uiso   1.00
C164   C     0.55005   0.98286   0.19878   0.00000  Uiso   1.00
C165   C     0.53010  -0.00559   0.13980   0.00000  Uiso   1.00
C166   C     0.56762   0.94308   0.15401   0.00000  Uiso   1.00
H167   H     0.52528   0.99650   0.24721   0.00000  Uiso   1.00
N168   N     0.45012   0.19154   0.25161   0.00000  Uiso   1.00
N169   N     0.51669   0.03759   0.18402   0.00000  Uiso   1.00
H170   H     0.56372   1.01620   0.23702   0.00000  Uiso   1.00
H171   H     0.41446   0.30726   0.25678   0.00000  Uiso   1.00
H172   H     0.41467   0.24457   0.35201   0.00000  Uiso   1.00
H173   H     0.42877   0.28389   0.20275   0.00000  Uiso   1.00
H174   H     0.46242   0.25015   0.20533   0.00000  Uiso   1.00
H175   H     0.41985   0.24003   0.20083   0.00000  Uiso   1.00
H176   H     0.46577   0.17403   0.32070   0.00000  Uiso   1.00
H177   H     0.43613   0.18675   0.35482   0.00000  Uiso   1.00
H178   H     0.42238   0.16560   0.31883   0.00000  Uiso   1.00
O179   O     0.39546   0.17293   0.25436   0.00000  Uiso   1.00
O180   O     0.50418   0.21152   0.24929   0.00000  Uiso   1.00
H181   H     0.54790   0.17158   0.21995   0.00000  Uiso   1.00
H182   H     0.39452   0.11336   0.23404   0.00000  Uiso   1.00
H183   H     0.57080   0.11844   0.19507   0.00000  Uiso   1.00
H184   H     0.49095   0.00237   0.10300   0.00000  Uiso   1.00
H185   H     0.49944   0.04100   0.12210   0.00000  Uiso   1.00
H186   H     0.54743   0.95638   0.10353   0.00000  Uiso   1.00
H187   H     0.41796   0.05910   0.21175   0.00000  Uiso   1.00
H188   H     0.56525   0.97190   0.25216   0.00000  Uiso   1.00
O189   O     0.46370   0.01544   0.19096   0.00000  Uiso   1.00
O190   O     0.57013   0.05861   0.17580   0.00000  Uiso   1.00
H191   H     0.52844   0.02264   0.09022   0.00000  Uiso   1.00
H192   H     0.48435   0.31598   0.40312   0.00000  Uiso   1.00
C193   C     0.77653   0.22445   0.61239   0.00000  Uiso   1.00
C194   C     0.75581   0.23777   0.63953   0.00000  Uiso   1.00
C195   C     0.72405   0.25492   0.63269   0.00000  Uiso   1.00
C196   C     0.71331   0.25917   0.59816   0.00000  Uiso   1.00
C197   C     0.73542   0.24856   0.57062   0.00000  Uiso   1.00
C198   C     0.76673   0.23129   0.57800   0.00000  Uiso   1.00
C199   C     0.70106   0.26708   0.66218   0.00000  Uiso   1.00
C200   C     0.72495   0.25368   0.53347   0.00000  Uiso   1.00
C201   C     0.66961   0.30298   0.57944   0.00000  Uiso   1.00
C202   C     0.63771   0.31207   0.56594   0.00000  Uiso   1.00
C203   C     0.61523   0.28675   0.56507   0.00000  Uiso   1.00
C204   C     0.62441   0.25324   0.57883   0.00000  Uiso   1.00
C205   C     0.65654   0.24537   0.59204   0.00000  Uiso   1.00
C206   C     0.62832   0.34537   0.55196   0.00000  Uiso   1.00
C207   C     0.59739   0.35320   0.53651   0.00000  Uiso   1.00
C208   C     0.57522   0.32787   0.53456   0.00000  Uiso   1.00
C209   C     0.58402   0.29461   0.54923   0.00000  Uiso   1.00
C210   C     0.56215   0.26891   0.54709   0.00000  Uiso   1.00
C211   C     0.57115   0.23584   0.56187   0.00000  Uiso   1.00
C212   C     0.60193   0.22810   0.57762   0.00000  Uiso   1.00
C213   C     0.54501   0.33452   0.51708   0.00000  Uiso   1.00
C214   C     0.53241   0.27666   0.52895   0.00000  Uiso   1.00
C215   C     0.49777   0.31445   0.48996   0.00000  Uiso   1.00
C216   C     0.45599   0.32999   0.53970   0.00000  Uiso   1.00
C217   C     0.43908   0.33157   0.47795   0.00000  Uiso   1.00
C218   C     0.53929   0.29821   0.44088   0.00000  Uiso   1.00
C219   C     0.47892   0.31812   0.43071   0.00000  Uiso   1.00
C220   C     0.50459   0.31041   0.45417   0.00000  Uiso   1.00
C221   C     0.46468   0.32487   0.50195   0.00000  Uiso   1.00
C222   C     0.44630   0.32892   0.44234   0.00000  Uiso   1.00
H223   H     0.54688   0.27230   0.45284   0.00000  Uiso   1.00
N224   N     0.67873   0.26985   0.59106   0.00000  Uiso   1.00
N225   N     0.52499   0.30872   0.51350   0.00000  Uiso   1.00
H226   H     0.55738   0.31617   0.44758   0.00000  Uiso   1.00
H227   H     0.76324   0.23254   0.66615   0.00000  Uiso   1.00
H228   H     0.78273   0.22124   0.55691   0.00000  Uiso   1.00
H229   H     0.71291   0.26152   0.68767   0.00000  Uiso   1.00
H230   H     0.69464   0.29522   0.65852   0.00000  Uiso   1.00
H231   H     0.67765   0.25412   0.66281   0.00000  Uiso   1.00
H232   H     0.72025   0.28152   0.52631   0.00000  Uiso   1.00
H233   H     0.74463   0.24256   0.51517   0.00000  Uiso   1.00
H234   H     0.70174   0.24115   0.53023   0.00000  Uiso   1.00
O235   O     0.66639   0.21245   0.60422   0.00000  Uiso   1.00
O236   O     0.69231   0.32695   0.57935   0.00000  Uiso   1.00
H237   H     0.64516   0.36527   0.55220   0.00000  Uiso   1.00
H238   H     0.60837   0.20215   0.58808   0.00000  Uiso   1.00
H239   H     0.59129   0.37895   0.52535   0.00000  Uiso   1.00
H240   H     0.43685   0.31265   0.54908   0.00000  Uiso   1.00
H241   H     0.47801   0.32461   0.55630   0.00000  Uiso   1.00
H242   H     0.41387   0.34041   0.48687   0.00000  Uiso   1.00
H243   H     0.55478   0.21564   0.56068   0.00000  Uiso   1.00
H244   H     0.54045   0.29660   0.41221   0.00000  Uiso   1.00
O245   O     0.51153   0.25157   0.52528   0.00000  Uiso   1.00
O246   O     0.53639   0.36657   0.50191   0.00000  Uiso   1.00
H247   H     0.44556   0.35696   0.54279   0.00000  Uiso   1.00
H248   H     0.64568   0.97565   0.05105   0.00000  Uiso   1.00
C249   C     0.77139   0.08873   0.68522   0.00000  Uiso   1.00
C250   C     0.77717   0.05311   0.69067   0.00000  Uiso   1.00
C251   C     0.76306   0.03641   0.72014   0.00000  Uiso   1.00
C252   C     0.74232   0.05582   0.74371   0.00000  Uiso   1.00
C253   C     0.73304   0.09095   0.73564   0.00000  Uiso   1.00
C254   C     0.74805   0.10721   0.70658   0.00000  Uiso   1.00
C255   C     0.77263   0.99874   0.72801   0.00000  Uiso   1.00
C256   C     0.70954   0.11166   0.75955   0.00000  Uiso   1.00
C257   C     0.75789   0.04858   0.80349   0.00000  Uiso   1.00
C258   C     0.75264   0.03679   0.83811   0.00000  Uiso   1.00
C259   C     0.72570   0.01704   0.84659   0.00000  Uiso   1.00
C260   C     0.70426   0.00983   0.82052   0.00000  Uiso   1.00
C261   C     0.70998   0.02303   0.78631   0.00000  Uiso   1.00
C262   C     0.77354   0.04436   0.86433   0.00000  Uiso   1.00
C263   C     0.76783   1.03239   0.89866   0.00000  Uiso   1.00
C264   C     0.74133   1.01225   0.90740   0.00000  Uiso   1.00
C265   C     0.72029   1.00442   0.88123   0.00000  Uiso   1.00
C266   C     0.69385   0.98398   0.88960   0.00000  Uiso   1.00
C267   C     0.67269   0.97678   0.86344   0.00000  Uiso   1.00
C268   C     0.67771   0.98975   0.82929   0.00000  Uiso   1.00
C269   C     0.73528   0.99964   0.94170   0.00000  Uiso   1.00
C270   C     0.68931   0.97126   0.92408   0.00000  Uiso   1.00
C271   C     0.70401   0.96613   0.98438   0.00000  Uiso   1.00
C272   C     0.75009   0.91703   0.97581   0.00000  Uiso   1.00
C273   C     0.71166   0.91925   0.02834   0.00000  Uiso   1.00
C274   C     0.65936   1.01568   0.99312   0.00000  Uiso   1.00
C275   C     0.66754   0.96511   0.03638   0.00000  Uiso   1.00
C276   C     0.67766   0.98189   0.00509   0.00000  Uiso   1.00
C277   C     0.72180   0.93510  -0.00335   0.00000  Uiso   1.00
C278   C     0.68403   0.93355   0.04764   0.00000  Uiso   1.00
H279   H     0.64746   1.01335   0.96803   0.00000  Uiso   1.00
N280   N     0.73648   0.04194   0.77855   0.00000  Uiso   1.00
N281   N     0.70973   0.97941   0.94928   0.00000  Uiso   1.00
H282   H     0.67732   0.03551   0.98963   0.00000  Uiso   1.00
H283   H     0.79554   0.03903   0.67421   0.00000  Uiso   1.00
H284   H     0.74387   0.13483   0.70232   0.00000  Uiso   1.00
H285   H     0.78959   0.98743   0.70733   0.00000  Uiso   1.00
H286   H     0.78571   0.99476   0.75295   0.00000  Uiso   1.00
H287   H     0.74974   0.98489   0.73004   0.00000  Uiso   1.00
H288   H     0.72072   0.11235   0.78529   0.00000  Uiso   1.00
H289   H     0.70409   0.13850   0.74892   0.00000  Uiso   1.00
H290   H     0.68543   0.09996   0.76300   0.00000  Uiso   1.00
O291   O     0.68893   0.01711   0.76069   0.00000  Uiso   1.00
O292   O     0.78456   0.06719   0.79462   0.00000  Uiso   1.00
H293   H     0.79427   0.05973   0.85846   0.00000  Uiso   1.00
H294   H     0.66085   0.98387   0.80980   0.00000  Uiso   1.00
H295   H     0.78431   1.03884   0.91827   0.00000  Uiso   1.00
H296   H     0.74351   0.89119   0.97014   0.00000  Uiso   1.00
H297   H     0.75575   0.93097   0.95072   0.00000  Uiso   1.00
H298   H     0.72373   0.89428   0.03661   0.00000  Uiso   1.00
H299   H     0.65210   0.96122   0.86927   0.00000  Uiso   1.00
H300   H     0.63937   1.02448   0.01226   0.00000  Uiso   1.00
O301   O     0.66420   0.95051   0.93258   0.00000  Uiso   1.00
O302   O     0.75530   1.00714   0.96761   0.00000  Uiso   1.00
H303   H     0.77317   0.91411   0.99106   0.00000  Uiso   1.00
H304   H     0.72102   0.96522   0.20349   0.00000  Uiso   1.00
C305   C     0.84868   0.05383   0.53826   0.00000  Uiso   1.00
C306   C     0.83816   0.02185   0.54929   0.00000  Uiso   1.00
C307   C     0.83032  -0.00082   0.52482   0.00000  Uiso   1.00
C308   C     0.83396   0.00864   0.48904   0.00000  Uiso   1.00
C309   C     0.84796   0.03933   0.47816   0.00000  Uiso   1.00
C310   C     0.85481   0.06190   0.50296   0.00000  Uiso   1.00
C311   C     0.81633   0.96607   0.53678   0.00000  Uiso   1.00
C312   C     0.85371   0.04900   0.44013   0.00000  Uiso   1.00
C313   C     0.78485   0.00132   0.45780   0.00000  Uiso   1.00
C314   C     0.76947  -0.01054   0.42960   0.00000  Uiso   1.00
C315   C     0.78819   0.96631   0.40815   0.00000  Uiso   1.00
C316   C     0.82155   0.95452   0.41592   0.00000  Uiso   1.00
C317   C     0.83599   0.96731   0.44442   0.00000  Uiso   1.00
C318   C     0.73628   0.00118   0.42169   0.00000  Uiso   1.00
C319   C     0.72203  -0.00938   0.39232   0.00000  Uiso   1.00
C320   C     0.74067   0.96812   0.37028   0.00000  Uiso   1.00
C321   C     0.77375   0.95562   0.37839   0.00000  Uiso   1.00
C322   C     0.79263   0.93304   0.35642   0.00000  Uiso   1.00
C323   C     0.82554   0.92058   0.36499   0.00000  Uiso   1.00
C324   C     0.83985   0.93124   0.39441   0.00000  Uiso   1.00
C325   C     0.72727   0.95829   0.33986   0.00000  Uiso   1.00
C326   C     0.77818   0.92410   0.32608   0.00000  Uiso   1.00
C327   C     0.73264   0.92982   0.28580   0.00000  Uiso   1.00
C328   C     0.71371   0.87361   0.31314   0.00000  Uiso   1.00
C329   C     0.70399   0.89281   0.25121   0.00000  Uiso   1.00
C330   C     0.75095   0.98599   0.25921   0.00000  Uiso   1.00
C331   C     0.72009   0.94688   0.22559   0.00000  Uiso   1.00
C332   C     0.73422   0.95357   0.25684   0.00000  Uiso   1.00
C333   C     0.71710   0.89939   0.28296   0.00000  Uiso   1.00
C334   C     0.70525   0.91641   0.22251   0.00000  Uiso   1.00
H335   H     0.77665   0.97972   0.26887   0.00000  Uiso   1.00
N336   N     0.81779  -0.00904   0.46400   0.00000  Uiso   1.00
N337   N     0.74626   0.93722   0.31815   0.00000  Uiso   1.00
H338   H     0.73625   1.00304   0.27736   0.00000  Uiso   1.00
H339   H     0.83359   0.01581   0.57677   0.00000  Uiso   1.00
H340   H     0.86370   0.08643   0.49476   0.00000  Uiso   1.00
H341   H     0.81563   0.96218   0.56556   0.00000  Uiso   1.00
H342   H     0.79039  -0.03394   0.52783   0.00000  Uiso   1.00
H343   H     0.83225   0.94421   0.52593   0.00000  Uiso   1.00
H344   H     0.82985   0.05025   0.42635   0.00000  Uiso   1.00
H345   H     0.86377   0.07436   0.43603   0.00000  Uiso   1.00
H346   H     0.87215   0.02957   0.42850   0.00000  Uiso   1.00
O347   O     0.86884   0.95730   0.45169   0.00000  Uiso   1.00
O348   O     0.76730   0.02490   0.47821   0.00000  Uiso   1.00
H349   H     0.72142   0.01904   0.43779   0.00000  Uiso   1.00
H350   H     0.86545   0.92163   0.39994   0.00000  Uiso   1.00
H351   H     0.69655   0.00055   0.38671   0.00000  Uiso   1.00
H352   H     0.72767   0.84881   0.30679   0.00000  Uiso   1.00
H353   H     0.72343   0.88177   0.33745   0.00000  Uiso   1.00
H354   H     0.69203   0.86946   0.24921   0.00000  Uiso   1.00
H355   H     0.84050   0.90289   0.34880   0.00000  Uiso   1.00
H356   H     0.75305   1.00017   0.23351   0.00000  Uiso   1.00
O357   O     0.79637   0.90269   0.30394   0.00000  Uiso   1.00
O358   O     0.69516   0.97044   0.33146   0.00000  Uiso   1.00
H359   H     0.68684   0.86968   0.31810   0.00000  Uiso   1.00
H360   H     0.23155   0.64891   0.76517   0.00000  Uiso   1.00
C361   C     0.33943   0.44086   0.43642   0.00000  Uiso   1.00
C362   C     0.31807   0.43147   0.46440   0.00000  Uiso   1.00
C363   C     0.31067   0.45287   0.49195   0.00000  Uiso   1.00
C364   C     0.32470   0.48449   0.49158   0.00000  Uiso   1.00
C365   C     0.34566   0.49451   0.46320   0.00000  Uiso   1.00
C366   C     0.35287   0.47258   0.43585   0.00000  Uiso   1.00
C367   C     0.28846   0.44146   0.52207   0.00000  Uiso   1.00
C368   C     0.36062   0.52823   0.46222   0.00000  Uiso   1.00
C369   C     0.34010   0.50280   0.54716   0.00000  Uiso   1.00
C370   C     0.33195   0.51963   0.57796   0.00000  Uiso   1.00
C371   C     0.30077   0.53929   0.58121   0.00000  Uiso   1.00
C372   C     0.27902   0.54314   0.55320   0.00000  Uiso   1.00
C373   C     0.28853   0.52638   0.52270   0.00000  Uiso   1.00
C374   C     0.35360   0.51630   0.60595   0.00000  Uiso   1.00
C375   C     0.34386   0.53123   0.63723   0.00000  Uiso   1.00
C376   C     0.31218   0.54963   0.64127   0.00000  Uiso   1.00
C377   C     0.29080   0.55413   0.61295   0.00000  Uiso   1.00
C378   C     0.25893   0.57235   0.61668   0.00000  Uiso   1.00
C379   C     0.23786   0.57691   0.58824   0.00000  Uiso   1.00
C380   C     0.24784   0.56255   0.55680   0.00000  Uiso   1.00
C381   C     0.30057   0.56231   0.67339   0.00000  Uiso   1.00
C382   C     0.24830   0.58418   0.64931   0.00000  Uiso   1.00
C383   C     0.25425   0.58380   0.71137   0.00000  Uiso   1.00
C384   C     0.23943   0.52166   0.71778   0.00000  Uiso   1.00
C385   C     0.21970   0.56478   0.76066   0.00000  Uiso   1.00
C386   C     0.26976   0.64490   0.70532   0.00000  Uiso   1.00
C387   C     0.23414   0.62330   0.75579   0.00000  Uiso   1.00
C388   C     0.25272   0.61667   0.72474   0.00000  Uiso   1.00
C389   C     0.23834   0.55746   0.73014   0.00000  Uiso   1.00
C390   C     0.21672   0.59772   0.77325   0.00000  Uiso   1.00
H391   H     0.25906   0.65033   0.67927   0.00000  Uiso   1.00
N392   N     0.31810   0.50581   0.52066   0.00000  Uiso   1.00
N393   N     0.26862   0.57793   0.67712   0.00000  Uiso   1.00
H394   H     0.29702   0.63698   0.70222   0.00000  Uiso   1.00
H395   H     0.30796   0.40682   0.46539   0.00000  Uiso   1.00
H396   H     0.36935   0.48006   0.41435   0.00000  Uiso   1.00
H397   H     0.28066   0.41548   0.51902   0.00000  Uiso   1.00
H398   H     0.30205   0.44070   0.54661   0.00000  Uiso   1.00
H399   H     0.26547   0.45955   0.52400   0.00000  Uiso   1.00
H400   H     0.37662   0.52894   0.48488   0.00000  Uiso   1.00
H401   H     0.37639   0.53231   0.43824   0.00000  Uiso   1.00
H402   H     0.34030   0.54956   0.46307   0.00000  Uiso   1.00
O403   O     0.26735   0.52931   0.49542   0.00000  Uiso   1.00
O404   O     0.36958   0.48203   0.54424   0.00000  Uiso   1.00
H405   H     0.37786   0.50159   0.60401   0.00000  Uiso   1.00
H406   H     0.23068   0.56595   0.53566   0.00000  Uiso   1.00
H407   H     0.36091   0.52758   0.65846   0.00000  Uiso   1.00
H408   H     0.21355   0.51517   0.71409   0.00000  Uiso   1.00
H409   H     0.25382   0.51833   0.69289   0.00000  Uiso   1.00
H410   H     0.20633   0.54483   0.77402   0.00000  Uiso   1.00
H411   H     0.21329   0.59094   0.59039   0.00000  Uiso   1.00
H412   H     0.26651   0.66895   0.71932   0.00000  Uiso   1.00
O413   O     0.21657   0.60027   0.65384   0.00000  Uiso   1.00
O414   O     0.32045   0.55695   0.70166   0.00000  Uiso   1.00
H415   H     0.25130   0.50317   0.73760   0.00000  Uiso   1.00
H416   H     0.29366   0.44724   0.30022   0.00000  Uiso   1.00
C417   C     0.17973   0.55331   0.93251   0.00000  Uiso   1.00
C418   C     0.18802   0.51787   0.93152   0.00000  Uiso   1.00
C419   C     0.19945   0.49841   0.96137   0.00000  Uiso   1.00
C420   C     0.20165   0.51466  -0.00720   0.00000  Uiso   1.00
C421   C     0.19220   0.55015  -0.00593   0.00000  Uiso   1.00
C422   C     0.18188   0.56914   0.96388   0.00000  Uiso   1.00
C423   C     0.20953   0.46062   0.95955   0.00000  Uiso   1.00
C424   C     0.19274   0.56776   0.02767   0.00000  Uiso   1.00
C425   C     0.24706   0.49743   0.03146   0.00000  Uiso   1.00
C426   C     0.25878   0.48421   0.06386   0.00000  Uiso   1.00
C427   C     0.23667   0.46831   0.08759   0.00000  Uiso   1.00
C428   C     0.20353   0.46530   0.07835   0.00000  Uiso   1.00
C429   C     0.19277   0.47939   0.04580   0.00000  Uiso   1.00
C430   C     0.29171   0.48734   0.07340   0.00000  Uiso   1.00
C431   C     0.30245   0.47521   0.10626   0.00000  Uiso   1.00
C432   C     0.28054   0.45952   0.13025   0.00000  Uiso   1.00
C433   C     0.24760   0.45587   0.12083   0.00000  Uiso   1.00
C434   C     0.22546   0.44013   0.14468   0.00000  Uiso   1.00
C435   C     0.19264   0.43666   0.13494   0.00000  Uiso   1.00
C436   C     0.18178   0.44916   0.10217   0.00000  Uiso   1.00
C437   C     0.29073   0.44739   0.16354   0.00000  Uiso   1.00
C438   C     0.23682   0.42832   0.17773   0.00000  Uiso   1.00
C439   C     0.28054   0.41928   0.22013   0.00000  Uiso   1.00
C440   C     0.30014   0.36115   0.19591   0.00000  Uiso   1.00
C441   C     0.31045   0.37456   0.25666   0.00000  Uiso   1.00
C442   C     0.26160   0.47718   0.24382   0.00000  Uiso   1.00
C443   C     0.29366   0.43000   0.27934   0.00000  Uiso   1.00
C444   C     0.27861   0.44132   0.24794   0.00000  Uiso   1.00
C445   C     0.29635   0.38552   0.22477   0.00000  Uiso   1.00
C446   C     0.30978   0.39686   0.28362   0.00000  Uiso   1.00
H447   H     0.23495   0.47621   0.23760   0.00000  Uiso   1.00
N448   N     0.21434   0.49568   0.02346   0.00000  Uiso   1.00
N449   N     0.26894   0.43212   0.18648   0.00000  Uiso   1.00
H450   H     0.27435   0.49184   0.22252   0.00000  Uiso   1.00
H451   H     0.18635   0.50564   0.90735   0.00000  Uiso   1.00
H452   H     0.17494   0.59645   0.96496   0.00000  Uiso   1.00
H453   H     0.20712   0.45199   0.93298   0.00000  Uiso   1.00
H454   H     0.23605   0.45468   0.96688   0.00000  Uiso   1.00
H455   H     0.19324   0.44599   0.97770   0.00000  Uiso   1.00
H456   H     0.21863   0.56569   0.03719   0.00000  Uiso   1.00
H457   H     0.18371   0.59542   0.02449   0.00000  Uiso   1.00
H458   H     0.17620   0.55561   0.04762   0.00000  Uiso   1.00
O459   O     0.16014   0.47807   0.03700   0.00000  Uiso   1.00
O460   O     0.26810   0.51363   0.00833   0.00000  Uiso   1.00
H461   H     0.30917   0.49957   0.05569   0.00000  Uiso   1.00
H462   H     0.15622   0.44638   0.09568   0.00000  Uiso   1.00
H463   H     0.32791   0.47832   0.11283   0.00000  Uiso   1.00
H464   H     0.28807   0.33757   0.20421   0.00000  Uiso   1.00
H465   H     0.28862   0.37222   0.17159   0.00000  Uiso   1.00
H466   H     0.32377   0.34919   0.25976   0.00000  Uiso   1.00
H467   H     0.17517   0.42449   0.15267   0.00000  Uiso   1.00
H468   H     0.26229   0.49105   0.26799   0.00000  Uiso   1.00
O469   O     0.21569   0.41276   0.20125   0.00000  Uiso   1.00
O470   O     0.32278   0.45074   0.17310   0.00000  Uiso   1.00
H471   H     0.32721   0.35404   0.19006   0.00000  Uiso   1.00
H472   H     0.94449   0.21179   0.62459   0.00000  Uiso   1.00
C473   C     0.27323   0.30656   0.44631   0.00000  Uiso   1.00
C474   C     0.25462   0.29014   0.42346   0.00000  Uiso   1.00
C475   C     0.22361   0.27848   0.43410   0.00000  Uiso   1.00
C476   C     0.21084   0.28325   0.46826   0.00000  Uiso   1.00
C477   C     0.22949   0.29946   0.49152   0.00000  Uiso   1.00
C478   C     0.26047   0.31100   0.48037   0.00000  Uiso   1.00
C479   C     0.20410   0.26124   0.40894   0.00000  Uiso   1.00
C480   C     0.21630   0.30456   0.52810   0.00000  Uiso   1.00
C481   C     0.17674   0.23942   0.49330   0.00000  Uiso   1.00
C482   C     0.14555   0.22806   0.50406   0.00000  Uiso   1.00
C483   C     0.11627   0.25072   0.50003   0.00000  Uiso   1.00
C484   C     0.11859   0.28420   0.48537   0.00000  Uiso   1.00
C485   C     0.15033   0.29442   0.47502   0.00000  Uiso   1.00
C486   C     0.14293   0.19473   0.51879   0.00000  Uiso   1.00
C487   C     0.11171   0.18414   0.52964   0.00000  Uiso   1.00
C488   C     0.08237   0.20662   0.52596   0.00000  Uiso   1.00
C489   C     0.08463   0.23996   0.51091   0.00000  Uiso   1.00
C490   C     0.05536   0.26266   0.50702   0.00000  Uiso   1.00
C491   C     0.05795   0.29594   0.49215   0.00000  Uiso   1.00
C492   C     0.08922   0.30660   0.48150   0.00000  Uiso   1.00
C493   C     0.05080   0.19678   0.53745   0.00000  Uiso   1.00
C494   C     0.02426   0.25157   0.51864   0.00000  Uiso   1.00
C495   C     0.99107   0.20938   0.54860   0.00000  Uiso   1.00
C496   C     0.98008   0.18051   0.49315   0.00000  Uiso   1.00
C497   C     0.94211   0.17766   0.54594   0.00000  Uiso   1.00
C498   C     1.00192   0.23832   0.60343   0.00000  Uiso   1.00
C499   C     0.95168   0.20568   0.59818   0.00000  Uiso   1.00
C500   C     0.98096   0.21768   0.58280   0.00000  Uiso   1.00
C501   C     0.97114   0.18963   0.52991   0.00000  Uiso   1.00
C502   C     0.93232   0.18517   0.58018   0.00000  Uiso   1.00
H503   H     1.00443   0.26369   0.58972   0.00000  Uiso   1.00
N504   N     0.17859   0.27211   0.47915   0.00000  Uiso   1.00
N505   N     0.02262   0.21933   0.53398   0.00000  Uiso   1.00
H506   H     0.02725   0.22451   0.60659   0.00000  Uiso   1.00
H507   H     0.26406   0.28668   0.39708   0.00000  Uiso   1.00
H508   H     0.27456   0.32363   0.49825   0.00000  Uiso   1.00
H509   H     0.21759   0.25915   0.38331   0.00000  Uiso   1.00
H510   H     0.19992   0.23497   0.41945   0.00000  Uiso   1.00
H511   H     0.17947   0.27621   0.40487   0.00000  Uiso   1.00
H512   H     0.21248   0.27933   0.54156   0.00000  Uiso   1.00
H513   H     0.23393   0.31730   0.54325   0.00000  Uiso   1.00
H514   H     0.19199   0.32078   0.52765   0.00000  Uiso   1.00
O515   O     0.15302   0.32698   0.46072   0.00000  Uiso   1.00
O516   O     0.20550   0.21766   0.49706   0.00000  Uiso   1.00
H517   H     0.16501   0.17676   0.52215   0.00000  Uiso   1.00
H518   H     0.09028   0.33250   0.47036   0.00000  Uiso   1.00
H519   H     0.11066   0.15836   0.54109   0.00000  Uiso   1.00
H520   H     0.95901   0.19010   0.47624   0.00000  Uiso   1.00
H521   H     1.00293   0.19175   0.48249   0.00000  Uiso   1.00
H522   H     0.92754   0.16175   0.53176   0.00000  Uiso   1.00
H523   H     0.03588   0.31394   0.48892   0.00000  Uiso   1.00
H524   H     0.99052   0.24277   0.62970   0.00000  Uiso   1.00
O525   O     0.99551   0.27340   0.51520   0.00000  Uiso   1.00
O526   O     0.04829   0.16463   0.55290   0.00000  Uiso   1.00
H527   H     0.98432   0.15220   0.49218   0.00000  Uiso   1.00
H528   H     0.10324   0.73666   0.81652   0.00000  Uiso   1.00
C529   C     0.91202   0.04758   0.66102   0.00000  Uiso   1.00
C530   C     0.91155   0.01981   0.63983   0.00000  Uiso   1.00
C531   C     0.92696   0.98736   0.64969   0.00000  Uiso   1.00
C532   C     0.94398   0.98243   0.68106   0.00000  Uiso   1.00
C533   C     0.94511   0.01022   0.70244   0.00000  Uiso   1.00
C534   C     0.92899   0.04258   0.69228   0.00000  Uiso   1.00
C535   C     0.92453   0.95789   0.62702   0.00000  Uiso   1.00
C536   C     0.96307   0.00531   0.73610   0.00000  Uiso   1.00
C537   C     0.99062   0.93839   0.67735   0.00000  Uiso   1.00
C538   C     1.00494   0.90460   0.68399   0.00000  Uiso   1.00
C539   C     0.98714   0.88185   0.70558   0.00000  Uiso   1.00
C540   C     0.95530   0.89304   0.71980   0.00000  Uiso   1.00
C541   C     0.94180   0.92694   0.71204   0.00000  Uiso   1.00
C542   C     0.03645   0.89300   0.66948   0.00000  Uiso   1.00
C543   C     0.05044   0.85945   0.67692   0.00000  Uiso   1.00
C544   C     0.03331   0.83685   0.69921   0.00000  Uiso   1.00
C545   C     1.00137   0.84796   0.71325   0.00000  Uiso   1.00
C546   C     0.98396   0.82548   0.73557   0.00000  Uiso   1.00
C547   C     0.95192   0.83668   0.74905   0.00000  Uiso   1.00
C548   C     0.93772   0.87008   0.74121   0.00000  Uiso   1.00
C549   C     0.04792   0.80386   0.70913   0.00000  Uiso   1.00
C550   C     0.99975   0.79286   0.74504   0.00000  Uiso   1.00
C551   C     0.05051   0.75423   0.74972   0.00000  Uiso   1.00
C552   C     0.02914   0.71326   0.70880   0.00000  Uiso   1.00
C553   C     0.06792   0.69286   0.75652   0.00000  Uiso   1.00
C554   C     0.07112   0.79524   0.79058   0.00000  Uiso   1.00
C555   C     0.08858   0.73201   0.79465   0.00000  Uiso   1.00
C556   C     0.07007   0.75975   0.77797   0.00000  Uiso   1.00
C557   C     0.04941   0.72055   0.73891   0.00000  Uiso   1.00
C558   C     0.08790   0.69847   0.78414   0.00000  Uiso   1.00
H559   H     0.04537   0.80641   0.79763   0.00000  Uiso   1.00
N560   N     0.95954   0.94882   0.69120   0.00000  Uiso   1.00
N561   N     0.03168   0.78331   0.73287   0.00000  Uiso   1.00
H562   H     0.08217   0.81201   0.76986   0.00000  Uiso   1.00
H563   H     0.89845   0.02304   0.61574   0.00000  Uiso   1.00
H564   H     0.92931   0.06372   0.70896   0.00000  Uiso   1.00
H565   H     0.90878   0.96560   0.60429   0.00000  Uiso   1.00
H566   H     0.94994   0.94827   0.61722   0.00000  Uiso   1.00
H567   H     0.91305   0.93683   0.64228   0.00000  Uiso   1.00
H568   H     0.99001  -0.00289   0.73082   0.00000  Uiso   1.00
H569   H     0.96122   0.02935   0.75010   0.00000  Uiso   1.00
H570   H     0.95194   0.98538   0.75333   0.00000  Uiso   1.00
O571   O     0.91042   0.93800   0.72491   0.00000  Uiso   1.00
O572   O     1.00760   0.96088   0.65633   0.00000  Uiso   1.00
H573   H     0.05049   0.90984   0.65248   0.00000  Uiso   1.00
H574   H     0.91308   0.87793   0.75225   0.00000  Uiso   1.00
H575   H     0.07495   0.85149   0.66563   0.00000  Uiso   1.00
H576   H     0.00988   0.69598   0.71798   0.00000  Uiso   1.00
H577   H     0.01626   0.73686   0.69625   0.00000  Uiso   1.00
H578   H     0.06689   0.66705   0.74848   0.00000  Uiso   1.00
H579   H     0.93791   0.81984   0.76608   0.00000  Uiso   1.00
H580   H     0.08651   0.79497   0.81387   0.00000  Uiso   1.00
O581   O     0.98402   0.77142   0.76846   0.00000  Uiso   1.00
O582   O     0.07966   0.79316   0.69694   0.00000  Uiso   1.00
H583   H     0.04594   0.70043   0.68891   0.00000  Uiso   1.00
H584   H     0.94222   0.19725   0.75033   0.00000  Uiso   1.00
C585   C     0.04847   0.53852   0.84058   0.00000  Uiso   1.00
C586   C     0.01921   0.54762   0.82231   0.00000  Uiso   1.00
C587   C    -0.00182   0.52250   0.81521   0.00000  Uiso   1.00
C588   C     0.00701   0.48789   0.82624   0.00000  Uiso   1.00
C589   C     0.03486   0.47944   0.84739   0.00000  Uiso   1.00
C590   C     0.05551   0.50484   0.85411   0.00000  Uiso   1.00
C591   C     0.96732   0.53231   0.79466   0.00000  Uiso   1.00
C592   C     0.04361   0.44308   0.86120   0.00000  Uiso   1.00
C593   C     0.00726   0.44903   0.78032   0.00000  Uiso   1.00
C594   C    -0.00352   0.42040   0.76570   0.00000  Uiso   1.00
C595   C     0.96978   0.40422   0.78214   0.00000  Uiso   1.00
C596   C     0.95392   0.41725   0.81253   0.00000  Uiso   1.00
C597   C     0.96583   0.44593   0.82643   0.00000  Uiso   1.00
C598   C     0.01225   0.40723   0.73548   0.00000  Uiso   1.00
C599   C     1.00212   0.37786   0.72214   0.00000  Uiso   1.00
C600   C     0.97587   0.36115   0.73860   0.00000  Uiso   1.00
C601   C     0.95933   0.37463   0.76844   0.00000  Uiso   1.00
C602   C     0.93267   0.35829   0.78484   0.00000  Uiso   1.00
C603   C     0.91659   0.37180   0.81477   0.00000  Uiso   1.00
C604   C     0.92713   0.40091   0.82852   0.00000  Uiso   1.00
C605   C     0.96598   0.33100   0.72623   0.00000  Uiso   1.00
C606   C     0.92315   0.32858   0.77103   0.00000  Uiso   1.00
C607   C     0.93155   0.28353   0.73031   0.00000  Uiso   1.00
C608   C     0.90013   0.31582   0.67996   0.00000  Uiso   1.00
C609   C     0.90428   0.25211   0.68905   0.00000  Uiso   1.00
C610   C     0.96474   0.25159   0.77881   0.00000  Uiso   1.00
C611   C     0.93388   0.22129   0.73657   0.00000  Uiso   1.00
C612   C     0.94288   0.25218   0.74798   0.00000  Uiso   1.00
C613   C     0.91243   0.28337   0.70034   0.00000  Uiso   1.00
C614   C     0.91434   0.22114   0.70739   0.00000  Uiso   1.00
H615   H     0.95081   0.26497   0.80027   0.00000  Uiso   1.00
N616   N    -0.00765   0.46084   0.81045   0.00000  Uiso   1.00
N617   N     0.94015   0.31527   0.74258   0.00000  Uiso   1.00
H618   H     0.98754   0.26462   0.77132   0.00000  Uiso   1.00
H619   H     0.01397   0.57375   0.81174   0.00000  Uiso   1.00
H620   H     0.07818   0.49805   0.86833   0.00000  Uiso   1.00
H621   H     0.96330   0.56045   0.78892   0.00000  Uiso   1.00
H622   H     0.96954   0.51957   0.76968   0.00000  Uiso   1.00
H623   H     0.94501   0.52423   0.80983   0.00000  Uiso   1.00
H624   H     0.04834   0.42584   0.83943   0.00000  Uiso   1.00
H625   H     0.06638   0.44069   0.87691   0.00000  Uiso   1.00
H626   H     0.02252   0.43454   0.87805   0.00000  Uiso   1.00
O627   O     0.95139   0.45846   0.85650   0.00000  Uiso   1.00
O628   O     0.03375   0.46459   0.76489   0.00000  Uiso   1.00
H629   H     0.03275   0.41931   0.72225   0.00000  Uiso   1.00
H630   H     0.91437   0.41039   0.85180   0.00000  Uiso   1.00
H631   H     1.01505   0.36817   0.69902   0.00000  Uiso   1.00
H632   H     0.87246   0.31735   0.67830   0.00000  Uiso   1.00
H633   H     0.90631   0.33929   0.69181   0.00000  Uiso   1.00
H634   H     0.88901   0.25211   0.66651   0.00000  Uiso   1.00
H635   H     0.89606   0.35967   0.82790   0.00000  Uiso   1.00
H636   H     0.97280   0.22498   0.78859   0.00000  Uiso   1.00
O637   O     0.89707   0.31238   0.78651   0.00000  Uiso   1.00
O638   O     0.98256   0.31691   0.69788   0.00000  Uiso   1.00
H639   H     0.91163   0.31557   0.65327   0.00000  Uiso   1.00
H640   H     0.03755   0.59946   0.92076   0.00000  Uiso   1.00
C641   C     0.71594   0.79534   0.07489   0.00000  Uiso   1.00
C642   C     0.74572   0.81110   0.06988   0.00000  Uiso   1.00
C643   C     0.77430   0.79398   0.05477   0.00000  Uiso   1.00
C644   C     0.77336   0.76005   0.04517   0.00000  Uiso   1.00
C645   C     0.74327   0.74405   0.04983   0.00000  Uiso   1.00
C646   C     0.71448   0.76211   0.06433   0.00000  Uiso   1.00
C647   C     0.80569   0.81201   0.04897   0.00000  Uiso   1.00
C648   C     0.74206   0.70778   0.03996   0.00000  Uiso   1.00
C649   C     0.82680   0.72721   0.05443   0.00000  Uiso   1.00
C650   C     0.85866   0.71404   0.04221   0.00000  Uiso   1.00
C651   C     0.86603   0.71540   1.00618   0.00000  Uiso   1.00
C652   C     0.84130   0.72917   0.98297   0.00000  Uiso   1.00
C653   C     0.80990   0.74247   0.99645   0.00000  Uiso   1.00
C654   C     0.88353   0.70047   0.06516   0.00000  Uiso   1.00
C655   C     0.91550   0.68880   0.05252   0.00000  Uiso   1.00
C656   C     0.92328   0.69039   1.01665   0.00000  Uiso   1.00
C657   C     0.89838   0.70354   0.99337   0.00000  Uiso   1.00
C658   C     0.90589   0.70527   0.95736   0.00000  Uiso   1.00
C659   C     0.88081   0.71829   0.93438   0.00000  Uiso   1.00
C660   C     0.84887   0.73015   0.94705   0.00000  Uiso   1.00
C661   C     0.95545   0.67938   1.00338   0.00000  Uiso   1.00
C662   C     0.93846   0.69409   0.94533   0.00000  Uiso   1.00
C663   C     0.99545   0.66992   0.95511   0.00000  Uiso   1.00
C664   C     0.01459   0.72962   0.95960   0.00000  Uiso   1.00
C665   C     0.05112   0.68202   0.93294   0.00000  Uiso   1.00
C666   C     0.97619   0.61069   0.95156   0.00000  Uiso   1.00
C667   C     0.03292   0.62546   0.92897   0.00000  Uiso   1.00
C668   C     1.00219   0.63579   0.94549   0.00000  Uiso   1.00
C669   C     0.02042   0.69297   0.94956   0.00000  Uiso   1.00
C670   C     0.05706   0.64867   0.92152   0.00000  Uiso   1.00
H671   H     0.95317   0.62036   0.93764   0.00000  Uiso   1.00
N672   N     0.80353   0.74181   0.03163   0.00000  Uiso   1.00
N673   N     0.96243   0.68156   0.96833   0.00000  Uiso   1.00
H674   H     0.96991   0.60736   0.97979   0.00000  Uiso   1.00
H675   H     0.74651   0.83708   0.07761   0.00000  Uiso   1.00
H676   H     0.69136   0.75005   0.06834   0.00000  Uiso   1.00
H677   H     0.80176   0.83894   0.05670   0.00000  Uiso   1.00
H678   H     0.82614   0.79843   0.06451   0.00000  Uiso   1.00
H679   H     0.81349   0.81243   1.02100   0.00000  Uiso   1.00
H680   H     0.76036   0.69045   0.05515   0.00000  Uiso   1.00
H681   H     0.71675   0.69899   0.04521   0.00000  Uiso   1.00
H682   H     0.74847   0.70598   0.01183   0.00000  Uiso   1.00
O683   O     0.78607   0.75752   0.97436   0.00000  Uiso   1.00
O684   O     0.81950   0.72687   0.08953   0.00000  Uiso   1.00
H685   H     0.87850   0.69922   0.09298   0.00000  Uiso   1.00
H686   H     0.83024   0.74035   0.92864   0.00000  Uiso   1.00
H687   H     0.93414   0.67879   0.07097   0.00000  Uiso   1.00
H688   H     0.01629   0.74715   0.93601   0.00000  Uiso   1.00
H689   H     0.98966   0.73561   0.97254   0.00000  Uiso   1.00
H690   H     0.06967   0.70008   0.92737   0.00000  Uiso   1.00
H691   H     0.88584   0.71963   0.90655   0.00000  Uiso   1.00
H692   H     0.98522   0.58516   0.94203   0.00000  Uiso   1.00
O693   O     0.94632   0.69580   0.91033   0.00000  Uiso   1.00
O694   O     0.98004   0.66658   0.02566   0.00000  Uiso   1.00
H695   H     0.03394   0.73480   0.97779   0.00000  Uiso   1.00
H696   H     0.45122   0.46346   0.28644   0.00000  Uiso   1.00
C697   C     0.59819   0.78498   0.18688   0.00000  Uiso   1.00
C698   C     0.60453   0.78221   0.22251   0.00000  Uiso   1.00
C699   C     0.59136   0.75658   0.24458   0.00000  Uiso   1.00
C700   C     0.57176   0.73314   0.23068   0.00000  Uiso   1.00
C701   C     0.56574   0.73550   0.19477   0.00000  Uiso   1.00
C702   C     0.57892   0.76138   0.17331   0.00000  Uiso   1.00
C703   C     0.59796   0.75453   0.28282   0.00000  Uiso   1.00
C704   C     0.54556   0.71032   0.17916   0.00000  Uiso   1.00
C705   C     0.52564   0.70948   0.26365   0.00000  Uiso   1.00
C706   C     0.51097   0.68145   0.28027   0.00000  Uiso   1.00
C707   C     0.53105   0.65033   0.28653   0.00000  Uiso   1.00
C708   C     0.56545   0.64797   0.27697   0.00000  Uiso   1.00
C709   C     0.57877   0.67638   0.25959   0.00000  Uiso   1.00
C710   C     0.47661   0.68340   0.28964   0.00000  Uiso   1.00
C711   C     0.46210   0.65442   0.30366   0.00000  Uiso   1.00
C712   C     0.48172   0.62296   0.30896   0.00000  Uiso   1.00
C713   C     0.51648   0.62117   0.30128   0.00000  Uiso   1.00
C714   C     0.53653   0.58999   0.30728   0.00000  Uiso   1.00
C715   C     0.57112   0.58839   0.29919   0.00000  Uiso   1.00
C716   C     0.58538   0.61699   0.28391   0.00000  Uiso   1.00
C717   C     0.46733   0.59283   0.32046   0.00000  Uiso   1.00
C718   C     0.52117   0.56083   0.31994   0.00000  Uiso   1.00
C719   C     0.47130   0.53092   0.33064   0.00000  Uiso   1.00
C720   C     0.46065   0.54183   0.39500   0.00000  Uiso   1.00
C721   C     0.44216   0.49065   0.36856   0.00000  Uiso   1.00
C722   C     0.48029   0.52105   0.26630   0.00000  Uiso   1.00
C723   C     0.45333   0.47944   0.30801   0.00000  Uiso   1.00
C724   C     0.46830   0.51017   0.30247   0.00000  Uiso   1.00
C725   C     0.45811   0.52098   0.36395   0.00000  Uiso   1.00
C726   C     0.44012   0.46962   0.34084   0.00000  Uiso   1.00
H727   H     0.50799   0.52091   0.26513   0.00000  Uiso   1.00
N728   N     0.55866   0.70610   0.25262   0.00000  Uiso   1.00
N729   N     0.48700   0.56237   0.32468   0.00000  Uiso   1.00
H730   H     0.46880   0.54727   0.25898   0.00000  Uiso   1.00
H731   H     0.61954   0.80020   0.23319   0.00000  Uiso   1.00
H732   H     0.57440   0.76285   0.14579   0.00000  Uiso   1.00
H733   H     0.61415   0.77438   0.28949   0.00000  Uiso   1.00
H734   H     0.57384   0.75836   0.29796   0.00000  Uiso   1.00
H735   H     0.61083   0.72904   0.29063   0.00000  Uiso   1.00
H736   H     0.51914   0.71390   0.18911   0.00000  Uiso   1.00
H737   H     0.54568   0.71380   0.15036   0.00000  Uiso   1.00
H738   H     0.55616   0.68368   0.18613   0.00000  Uiso   1.00
O739   O     0.61177   0.67383   0.24821   0.00000  Uiso   1.00
O740   O     0.50641   0.73992   0.25704   0.00000  Uiso   1.00
H741   H     0.46065   0.70708   0.28536   0.00000  Uiso   1.00
H742   H     0.61195   0.61457   0.27709   0.00000  Uiso   1.00
H743   H     0.43539   0.65660   0.30972   0.00000  Uiso   1.00
H744   H     0.47378   0.52569   0.41584   0.00000  Uiso   1.00
H745   H     0.47473   0.56451   0.38899   0.00000  Uiso   1.00
H746   H     0.43189   0.48313   0.39401   0.00000  Uiso   1.00
H747   H     0.58712   0.56477   0.30366   0.00000  Uiso   1.00
H748   H     0.47331   0.50363   0.24679   0.00000  Uiso   1.00
O749   O     0.54031   0.53021   0.32586   0.00000  Uiso   1.00
O750   O     0.43323   0.59364   0.32599   0.00000  Uiso   1.00
H751   H     0.43510   0.55086   0.40488   0.00000  Uiso   1.00
loop_
_geom_bond_atom_site_label_1
_geom_bond_atom_site_label_2
_geom_bond_distance
_geom_bond_site_symmetry_2
_ccdc_geom_bond_type
C0     O8      1.218   .     D
C0     O9      1.392   .     S
C0     C110    1.479   .     S
Er1    O11     2.158   .     S
Er1    O13     2.200   .     S
Er1    O15     2.193   .     S
Er1    O17     2.178   .     S
Er1    O18     2.181   .     S
Er1    O19     2.213   .     S
Er2    O4      2.155   .     S
Er2    O9      2.221   .     S
Er2    O10     2.187   .     S
Er2    O12     2.138   .     S
Er2    O16     2.186   .     S
C3     O16     1.273   .     A
C3     O17     1.277   .     A
C3     C670    1.477   .     S
O4     C14     1.268   .     A
C5     O12     1.268   .     A
C5     O13     1.279   .     A
C5     C558    1.480   .     S
C6     O10     1.271   .     A
C6     O11     1.265   .     A
C6     C390    1.478   .     S
C7     O18     1.256   .     A
C7     O19     1.269   .     A
C7     C585    1.465   .     S
C14    O15     1.276   .     A
C14    C417    1.477   .     S
C20    O28     1.218   .     D
C20    O29     1.391   .     S
C20    C334    1.476   .     S
Er21   O31     2.199   .     S
Er21   O33     2.181   .     S
Er21   O35     2.182   .     S
Er21   O37     2.158   .     S
Er21   O38     2.197   .     S
Er21   O39     2.185   .     S
Er22   O24     2.160   .     S
Er22   O29     2.222   .     S
Er22   O30     2.173   .     S
Er22   O32     2.151   .     S
Er22   O36     2.181   .     S
C23    O36     1.270   .     A
C23    O37     1.264   .     A
C23    C278    1.462   .     S
O24    C34     1.271   .     A
C25    O32     1.270   .     A
C25    O33     1.275   .     A
C25    C641    1.464   .     S
C26    O30     1.268   .     A
C26    O31     1.280   .     A
C26    C697    1.482   .     S
C27    O38     1.271   .     A
C27    O39     1.260   .     A
C27    C81     1.472   .     S
C34    O35     1.275   .     A
C34    C166    1.476   .     S
C40    O48     1.218   .     D
C40    O49     1.397   .     S
C40    C614    1.470   .     S
Er41   O51     2.157   .     S
Er41   O53     2.173   .     S
Er41   O55     2.169   .     S
Er41   O57     2.185   .     S
Er41   O58     2.176   .     S
Er41   O59     2.197   .     S
Er42   O44     2.202   .     S
Er42   O49     2.218   .     S
Er42   O50     2.178   .     S
Er42   O52     2.157   .     S
Er42   O56     2.185   .     S
C43    O56     1.275   .     A
C43    O57     1.280   .     A
C43    C529    1.483   .     S
O44    C54     1.285   .     A
C45    O52     1.266   .     A
C45    O53     1.268   .     A
C45    C249    1.461   .     S
C46    O50     1.272   .     A
C46    O51     1.268   .     A
C46    C193    1.477   .     S
C47    O58     1.260   .     A
C47    O59     1.270   .     A
C47    C305    1.460   .     S
C54    O55     1.270   .     A
C54    C502    1.484   .     S
C60    O68     1.218   .     D
C60    O69     1.393   .     S
C60    C473    1.485   .     S
Er61   O71     2.156   .     S
Er61   O73     2.188   .     S
Er61   O75     2.214   .     S
Er61   O77     2.158   .     S
Er61   O78     2.201   .     S
Er61   O79     2.186   .     S
Er62   O64     2.160   .     S
Er62   O69     2.229   .     S
Er62   O70     2.187   .     S
Er62   O72     2.158   .     S
Er62   O76     2.182   .     S
C63    O76     1.276   .     A
C63    O77     1.272   .     A
C63    C222    1.469   .     S
O64    C74     1.267   .     A
C65    O72     1.265   .     A
C65    O73     1.270   .     A
C65    C137    1.474   .     S
C66    O70     1.275   .     A
C66    O71     1.268   .     A
C66    C446    1.465   .     S
C67    O78     1.272   .     A
C67    O79     1.262   .     A
C67    C726    1.472   .     S
C74    O75     1.283   .     A
C74    C361    1.481   .     S
H80    C107    1.084   .     S
C81    C82     1.402   .     A
C81    C86     1.402   .     A
C82    C83     1.402   .     A
C82    H115    1.083   .     S
C83    C84     1.411   .     A
C83    C87     1.505   .     S
C84    C85     1.411   .     A
C84    N112    1.440   .     S
C85    C86     1.401   .     A
C85    C88     1.505   1_554 S
C86    H116    1.084   .     S
C87    H117    1.111   .     S
C87    H118    1.110   .     S
C87    H119    1.110   .     S
C88    H120    1.110   .     S
C88    H121    1.111   .     S
C88    H122    1.110   .     S
C88    C85     1.505   1_556 S
C89    C90     1.403   .     A
C89    N112    1.369   .     A
C89    O124    1.373   .     S
C90    C94     1.405   .     A
C90    C91     1.408   1_554 A
C91    C92     1.410   .     A
C91    C97     1.413   .     A
C91    C90     1.408   1_556 A
C92    C100    1.405   .     A
C92    C93     1.406   1_556 A
C93    N112    1.369   .     A
C93    O123    1.373   .     S
C93    C92     1.406   1_554 A
C94    H125    1.083   .     S
C94    C95     1.396   1_554 A
C95    C96     1.405   .     A
C95    H127    1.083   .     S
C95    C94     1.396   1_556 A
C96    C97     1.409   .     A
C96    C101    1.404   .     A
C97    C98     1.409   .     A
C98    C99     1.406   .     A
C98    C102    1.404   .     A
C99    C100    1.397   .     A
C99    H131    1.083   .     S
C100   H126    1.083   .     S
C101   N113    1.370   .     A
C101   O134    1.373   .     S
C102   N113    1.370   .     A
C102   O133    1.373   .     S
C103   C108    1.412   .     A
C103   C109    1.413   .     A
C103   N113    1.439   .     S
C104   C109    1.506   .     S
C104   H128    1.111   1_556 S
C104   H129    1.108   1_556 S
C104   H135    1.110   1_556 S
C105   C109    1.401   .     A
C105   C110    1.404   .     A
C105   H130    1.084   .     S
C106   C108    1.506   .     S
C106   H111    1.110   .     S
C106   H114    1.111   .     S
C106   H132    1.111   .     S
C107   C108    1.403   .     A
C107   C110    1.403   .     A
H128   C104    1.111   1_554 S
H129   C104    1.108   1_554 S
H135   C104    1.110   1_554 S
H136   C163    1.084   .     S
C137   C138    1.401   .     A
C137   C142    1.401   .     A
C138   C139    1.407   .     A
C138   H171    1.084   .     S
C139   C140    1.415   .     A
C139   C143    1.505   .     S
C140   C141    1.412   .     A
C140   N168    1.442   .     S
C141   C142    1.400   .     A
C141   C144    1.507   .     S
C142   H172    1.084   .     S
C143   H173    1.111   .     S
C143   H174    1.109   .     S
C143   H175    1.111   .     S
C144   H176    1.111   .     S
C144   H177    1.111   .     S
C144   H178    1.109   .     S
C145   C146    1.405   .     A
C145   N168    1.370   .     A
C145   O180    1.373   .     S
C146   C147    1.409   .     A
C146   C150    1.405   .     A
C147   C148    1.408   .     A
C147   C153    1.414   .     A
C148   C149    1.406   .     A
C148   C156    1.406   .     A
C149   N168    1.371   .     A
C149   O179    1.373   .     S
C150   C151    1.397   .     A
C150   H181    1.083   .     S
C151   C152    1.405   .     A
C151   H183    1.083   .     S
C152   C153    1.408   .     A
C152   C157    1.404   .     A
C153   C154    1.409   .     A
C154   C155    1.406   .     A
C154   C158    1.407   .     A
C155   C156    1.398   .     A
C155   H187    1.083   .     S
C156   H182    1.083   .     S
C157   N169    1.371   .     A
C157   O190    1.373   .     S
C158   N169    1.371   .     A
C158   O189    1.373   .     S
C159   C165    1.416   .     A
C159   N169    1.442   .     S
C159   C164    1.413   1_545 A
C160   C165    1.506   .     S
C160   H184    1.110   .     S
C160   H185    1.108   .     S
C160   H191    1.110   .     S
C161   C166    1.403   .     A
C161   H186    1.084   .     S
C161   C165    1.405   1_565 A
C162   C164    1.506   .     S
C162   H167    1.110   .     S
C162   H170    1.110   .     S
C162   H188    1.111   .     S
C163   C164    1.400   .     A
C163   C166    1.401   .     A
C164   C159    1.413   1_565 A
C165   C161    1.405   1_545 A
H192   C219    1.085   .     S
C193   C194    1.404   .     A
C193   C198    1.402   .     A
C194   C195    1.408   .     A
C194   H227    1.084   .     S
C195   C196    1.413   .     A
C195   C199    1.505   .     S
C196   C197    1.411   .     A
C196   N224    1.441   .     S
C197   C198    1.398   .     A
C197   C200    1.507   .     S
C198   H228    1.084   .     S
C199   H229    1.111   .     S
C199   H230    1.111   .     S
C199   H231    1.110   .     S
C200   H232    1.110   .     S
C200   H233    1.112   .     S
C200   H234    1.110   .     S
C201   C202    1.407   .     A
C201   N224    1.369   .     A
C201   O236    1.373   .     S
C202   C203    1.410   .     A
C202   C206    1.405   .     A
C203   C204    1.408   .     A
C203   C209    1.415   .     A
C204   C205    1.405   .     A
C204   C212    1.406   .     A
C205   N224    1.371   .     A
C205   O235    1.374   .     S
C206   C207    1.398   .     A
C206   H237    1.083   .     S
C207   C208    1.406   .     A
C207   H239    1.083   .     S
C208   C209    1.408   .     A
C208   C213    1.406   .     A
C209   C210    1.410   .     A
C210   C211    1.405   .     A
C210   C214    1.406   .     A
C211   C212    1.397   .     A
C211   H243    1.083   .     S
C212   H238    1.083   .     S
C213   N225    1.371   .     A
C213   O246    1.373   .     S
C214   N225    1.370   .     A
C214   O245    1.373   .     S
C215   C220    1.412   .     A
C215   C221    1.417   .     A
C215   N225    1.441   .     S
C216   C221    1.505   .     S
C216   H240    1.111   .     S
C216   H241    1.109   .     S
C216   H247    1.111   .     S
C217   C221    1.406   .     A
C217   C222    1.401   .     A
C217   H242    1.085   .     S
C218   C220    1.506   .     S
C218   H223    1.110   .     S
C218   H226    1.110   .     S
C218   H244    1.111   .     S
C219   C220    1.398   .     A
C219   C222    1.399   .     A
H248   C275    1.084   .     S
C249   C250    1.399   .     A
C249   C254    1.399   .     A
C250   C251    1.403   .     A
C250   H283    1.084   .     S
C251   C252    1.413   .     A
C251   C255    1.506   1_545 S
C252   C253    1.411   .     A
C252   N280    1.438   .     S
C253   C254    1.399   .     A
C253   C256    1.507   .     S
C254   H284    1.084   .     S
C255   H285    1.111   .     S
C255   H286    1.111   .     S
C255   H287    1.110   .     S
C255   C251    1.506   1_565 S
C256   H288    1.110   .     S
C256   H289    1.111   .     S
C256   H290    1.111   .     S
C257   C258    1.401   .     A
C257   N280    1.370   .     A
C257   O292    1.374   .     S
C258   C259    1.407   .     A
C258   C262    1.405   .     A
C259   C260    1.410   .     A
C259   C265    1.412   1_545 A
C260   C261    1.406   .     A
C260   C268    1.405   1_545 A
C261   N280    1.368   .     A
C261   O291    1.372   .     S
C262   H293    1.083   .     S
C262   C263    1.395   1_545 A
C263   C264    1.404   .     A
C263   H295    1.083   .     S
C263   C262    1.395   1_565 A
C264   C265    1.410   .     A
C264   C269    1.404   .     A
C265   C266    1.408   .     A
C265   C259    1.412   1_565 A
C266   C267    1.406   .     A
C266   C270    1.403   .     A
C267   C268    1.397   .     A
C267   H299    1.083   .     S
C268   H294    1.083   .     S
C268   C260    1.405   1_565 A
C269   N281    1.369   .     A
C269   O302    1.372   .     S
C270   N281    1.370   .     A
C270   O301    1.374   .     S
C271   N281    1.438   .     S
C271   C276    1.414   1_556 A
C271   C277    1.415   1_556 A
C272   H296    1.111   .     S
C272   H297    1.108   .     S
C272   H303    1.111   .     S
C272   C277    1.507   1_556 S
C273   C277    1.401   .     A
C273   C278    1.399   .     A
C273   H298    1.085   .     S
C274   H279    1.110   .     S
C274   C276    1.507   1_556 S
C274   H282    1.111   1_565 S
C274   H300    1.111   1_556 S
C275   C276    1.403   .     A
C275   C278    1.399   .     A
C276   C271    1.414   1_554 A
C276   C274    1.507   1_554 S
C277   C271    1.415   1_554 A
C277   C272    1.507   1_554 S
H282   C274    1.111   1_545 S
H300   C274    1.111   1_554 S
H304   C331    1.084   .     S
C305   C306    1.400   .     A
C305   C310    1.396   .     A
C306   C307    1.403   .     A
C306   H339    1.084   .     S
C307   C308    1.413   .     A
C307   C311    1.505   1_545 S
C308   C309    1.413   .     A
C308   N336    1.436   .     S
C309   C310    1.398   .     A
C309   C312    1.507   .     S
C310   H340    1.084   .     S
C311   H341    1.111   .     S
C311   H343    1.110   .     S
C311   C307    1.505   1_565 S
C311   H342    1.110   1_565 S
C312   H344    1.110   .     S
C312   H345    1.111   .     S
C312   H346    1.110   .     S
C313   C314    1.400   .     A
C313   N336    1.370   .     A
C313   O348    1.374   .     S
C314   C318    1.404   .     A
C314   C315    1.408   1_545 A
C315   C316    1.410   .     A
C315   C321    1.413   .     A
C315   C314    1.408   1_565 A
C316   C317    1.407   .     A
C316   C324    1.405   .     A
C317   O347    1.373   .     S
C317   N336    1.368   1_565 A
C318   C319    1.394   .     A
C318   H349    1.083   .     S
C319   H351    1.083   .     S
C319   C320    1.404   1_545 A
C320   C321    1.409   .     A
C320   C325    1.403   .     A
C320   C319    1.404   1_565 A
C321   C322    1.408   .     A
C322   C323    1.407   .     A
C322   C326    1.407   .     A
C323   C324    1.399   .     A
C323   H355    1.083   .     S
C324   H350    1.083   .     S
C325   N337    1.369   .     A
C325   O358    1.373   .     S
C326   N337    1.371   .     A
C326   O357    1.373   .     S
C327   C332    1.414   .     A
C327   C333    1.414   .     A
C327   N337    1.441   .     S
C328   C333    1.505   .     S
C328   H352    1.110   .     S
C328   H353    1.108   .     S
C328   H359    1.110   .     S
C329   C333    1.402   .     A
C329   C334    1.402   .     A
C329   H354    1.084   .     S
C330   C332    1.506   .     S
C330   H335    1.110   .     S
C330   H338    1.110   .     S
C330   H356    1.111   .     S
C331   C332    1.404   .     A
C331   C334    1.402   .     A
N336   C317    1.368   1_545 A
H342   C311    1.110   1_545 S
H360   C387    1.084   .     S
C361   C362    1.404   .     A
C361   C366    1.404   .     A
C362   C363    1.400   .     A
C362   H395    1.084   .     S
C363   C364    1.412   .     A
C363   C367    1.507   .     S
C364   C365    1.413   .     A
C364   N392    1.442   .     S
C365   C366    1.406   .     A
C365   C368    1.505   .     S
C366   H396    1.083   .     S
C367   H397    1.111   .     S
C367   H398    1.110   .     S
C367   H399    1.110   .     S
C368   H400    1.110   .     S
C368   H401    1.111   .     S
C368   H402    1.110   .     S
C369   C370    1.407   .     A
C369   N392    1.371   .     A
C369   O404    1.373   .     S
C370   C371    1.408   .     A
C370   C374    1.406   .     A
C371   C372    1.409   .     A
C371   C377    1.415   .     A
C372   C373    1.405   .     A
C372   C380    1.405   .     A
C373   N392    1.369   .     A
C373   O403    1.373   .     S
C374   C375    1.399   .     A
C374   H405    1.083   .     S
C375   C376    1.406   .     A
C375   H407    1.083   .     S
C376   C377    1.410   .     A
C376   C381    1.408   .     A
C377   C378    1.408   .     A
C378   C379    1.405   .     A
C378   C382    1.404   .     A
C379   C380    1.396   .     A
C379   H411    1.083   .     S
C380   H406    1.083   .     S
C381   N393    1.370   .     A
C381   O414    1.372   .     S
C382   N393    1.370   .     A
C382   O413    1.373   .     S
C383   C388    1.415   .     A
C383   C389    1.414   .     A
C383   N393    1.442   .     S
C384   C389    1.508   .     S
C384   H408    1.110   .     S
C384   H409    1.107   .     S
C384   H415    1.110   .     S
C385   C389    1.398   .     A
C385   C390    1.402   .     A
C385   H410    1.084   .     S
C386   C388    1.504   .     S
C386   H391    1.110   .     S
C386   H394    1.110   .     S
C386   H412    1.111   .     S
C387   C388    1.409   .     A
C387   C390    1.402   .     A
H416   C443    1.084   .     S
C417   C418    1.401   .     A
C417   C422    1.404   .     A
C418   C419    1.410   .     A
C418   H451    1.083   .     S
C419   C423    1.504   .     S
C419   C420    1.415   1_556 A
C420   C421    1.411   .     A
C420   N448    1.442   .     S
C420   C419    1.415   1_554 A
C421   C424    1.509   .     S
C421   C422    1.399   1_554 A
C422   H452    1.084   .     S
C422   C421    1.399   1_556 A
C423   H453    1.111   .     S
C423   H454    1.111   .     S
C423   H455    1.110   .     S
C424   H456    1.110   .     S
C424   H457    1.111   .     S
C424   H458    1.111   .     S
C425   C426    1.405   .     A
C425   N448    1.370   .     A
C425   O460    1.373   .     S
C426   C427    1.409   .     A
C426   C430    1.405   .     A
C427   C428    1.409   .     A
C427   C433    1.415   .     A
C428   C429    1.408   .     A
C428   C436    1.406   .     A
C429   N448    1.371   .     A
C429   O459    1.373   .     S
C430   C431    1.397   .     A
C430   H461    1.083   .     S
C431   C432    1.406   .     A
C431   H463    1.083   .     S
C432   C433    1.409   .     A
C432   C437    1.405   .     A
C433   C434    1.409   .     A
C434   C435    1.406   .     A
C434   C438    1.408   .     A
C435   C436    1.399   .     A
C435   H467    1.083   .     S
C436   H462    1.083   .     S
C437   N449    1.371   .     A
C437   O470    1.373   .     S
C438   N449    1.370   .     A
C438   O469    1.373   .     S
C439   C444    1.415   .     A
C439   C445    1.416   .     A
C439   N449    1.442   .     S
C440   C445    1.506   .     S
C440   H464    1.110   .     S
C440   H465    1.109   .     S
C440   H471    1.111   .     S
C441   C445    1.402   .     A
C441   C446    1.399   .     A
C441   H466    1.085   .     S
C442   C444    1.505   .     S
C442   H447    1.110   .     S
C442   H450    1.110   .     S
C442   H468    1.112   .     S
C443   C444    1.404   .     A
C443   C446    1.398   .     A
H472   C499    1.083   .     S
C473   C474    1.405   .     A
C473   C478    1.405   .     A
C474   C475    1.404   .     A
C474   H507    1.083   .     S
C475   C476    1.411   .     A
C475   C479    1.505   .     S
C476   C477    1.412   .     A
C476   N504    1.444   .     S
C477   C478    1.406   .     A
C477   C480    1.505   .     S
C478   H508    1.083   .     S
C479   H509    1.111   .     S
C479   H510    1.110   .     S
C479   H511    1.110   .     S
C480   H512    1.111   .     S
C480   H513    1.111   .     S
C480   H514    1.111   .     S
C481   C482    1.407   .     A
C481   N504    1.371   .     A
C481   O516    1.373   .     S
C482   C483    1.409   .     A
C482   C486    1.406   .     A
C483   C484    1.409   .     A
C483   C489    1.416   .     A
C484   C485    1.407   .     A
C484   C492    1.406   .     A
C485   N504    1.371   .     A
C485   O515    1.373   .     S
C486   C487    1.398   .     A
C486   H517    1.083   .     S
C487   C488    1.406   .     A
C487   H519    1.083   .     S
C488   C489    1.408   .     A
C488   C493    1.406   .     A
C489   C490    1.409   .     A
C490   C491    1.406   .     A
C490   C494    1.408   .     A
C491   C492    1.398   .     A
C491   H523    1.083   .     S
C492   H518    1.083   .     S
C493   N505    1.371   .     A
C493   O526    1.373   .     S
C494   N505    1.370   .     A
C494   O525    1.373   1_455 S
C495   C500    1.413   .     A
C495   C501    1.415   .     A
C495   N505    1.443   1_655 S
C496   C501    1.505   .     S
C496   H520    1.111   .     S
C496   H521    1.109   .     S
C496   H527    1.111   .     S
C497   C501    1.404   .     A
C497   C502    1.403   .     A
C497   H522    1.084   .     S
C498   C500    1.507   .     S
C498   H503    1.110   .     S
C498   H524    1.111   .     S
C498   H506    1.111   1_655 S
C499   C500    1.403   .     A
C499   C502    1.405   .     A
N505   C495    1.443   1_455 S
H506   C498    1.111   1_455 S
O525   C494    1.373   1_655 S
H528   C555    1.083   .     S
C529   C530    1.406   .     A
C529   C534    1.404   .     A
C530   H563    1.082   .     S
C530   C531    1.398   1_545 A
C531   C532    1.409   .     A
C531   C535    1.507   .     S
C531   C530    1.398   1_565 A
C532   N560    1.441   .     S
C532   C533    1.414   1_565 A
C533   C534    1.408   .     A
C533   C536    1.505   .     S
C533   C532    1.414   1_545 A
C534   H564    1.083   .     S
C535   H565    1.112   .     S
C535   H566    1.110   .     S
C535   H567    1.111   .     S
C536   H568    1.110   .     S
C536   H569    1.111   .     S
C536   H570    1.110   1_545 S
C537   C538    1.405   .     A
C537   N560    1.370   .     A
C537   O572    1.373   .     S
C538   C539    1.409   .     A
C538   C542    1.406   1_655 A
C539   C540    1.409   .     A
C539   C545    1.414   .     A
C540   C541    1.406   .     A
C540   C548    1.406   .     A
C541   N560    1.370   .     A
C541   O571    1.373   .     S
C542   C543    1.397   .     A
C542   H573    1.083   .     S
C542   C538    1.406   1_455 A
C543   C544    1.405   .     A
C543   H575    1.083   .     S
C544   C549    1.405   .     A
C544   C545    1.409   1_455 A
C545   C546    1.409   .     A
C545   C544    1.409   1_655 A
C546   C547    1.405   .     A
C546   C550    1.406   .     A
C547   C548    1.398   .     A
C547   H579    1.083   .     S
C548   H574    1.083   .     S
C549   N561    1.370   .     A
C549   O582    1.373   .     S
C550   O581    1.373   .     S
C550   N561    1.370   1_655 A
C551   C556    1.409   .     A
C551   C557    1.417   .     A
C551   N561    1.440   .     S
C552   C557    1.504   .     S
C552   H576    1.110   .     S
C552   H577    1.109   .     S
C552   H583    1.111   .     S
C553   C557    1.409   .     A
C553   C558    1.401   .     A
C553   H578    1.083   .     S
C554   C556    1.510   .     S
C554   H559    1.111   .     S
C554   H562    1.110   .     S
C554   H580    1.111   .     S
C555   C556    1.395   .     A
C555   C558    1.405   .     A
N561   C550    1.370   1_455 A
H570   C536    1.110   1_565 S
H584   C611    1.084   .     S
C585   C586    1.399   .     A
C585   C590    1.398   .     A
C586   C587    1.407   .     A
C586   H619    1.084   .     S
C587   C588    1.414   .     A
C587   C591    1.504   1_455 S
C588   C589    1.412   .     A
C588   N616    1.442   .     S
C589   C590    1.401   .     A
C589   C592    1.506   .     S
C590   H620    1.084   .     S
C591   H621    1.111   .     S
C591   H622    1.110   .     S
C591   H623    1.110   .     S
C591   C587    1.504   1_655 S
C592   H624    1.110   .     S
C592   H625    1.111   .     S
C592   H626    1.110   .     S
C593   C594    1.402   .     A
C593   N616    1.371   .     A
C593   O628    1.373   .     S
C594   C598    1.405   .     A
C594   C595    1.407   1_455 A
C595   C596    1.410   .     A
C595   C601    1.414   .     A
C595   C594    1.407   1_655 A
C596   C597    1.410   .     A
C596   C604    1.406   .     A
C597   O627    1.372   .     S
C597   N616    1.370   1_655 A
C598   H629    1.083   .     S
C598   C599    1.395   1_455 A
C599   C600    1.404   .     A
C599   H631    1.083   .     S
C599   C598    1.395   1_655 A
C600   C601    1.410   .     A
C600   C605    1.402   .     A
C601   C602    1.408   .     A
C602   C603    1.406   .     A
C602   C606    1.405   .     A
C603   C604    1.399   .     A
C603   H635    1.083   .     S
C604   H630    1.083   .     S
C605   N617    1.370   .     A
C605   O638    1.374   .     S
C606   N617    1.371   .     A
C606   O637    1.374   .     S
C607   C612    1.413   .     A
C607   C613    1.415   .     A
C607   N617    1.439   .     S
C608   C613    1.506   .     S
C608   H632    1.110   .     S
C608   H633    1.108   .     S
C608   H639    1.111   .     S
C609   C613    1.401   .     A
C609   C614    1.401   .     A
C609   H634    1.085   .     S
C610   C612    1.505   .     S
C610   H615    1.109   .     S
C610   H618    1.111   .     S
C610   H636    1.111   .     S
C611   C612    1.401   .     A
C611   C614    1.400   .     A
N616   C597    1.370   1_455 A
H640   C667    1.084   .     S
C641   C642    1.400   .     A
C641   C646    1.399   .     A
C642   C643    1.395   .     A
C642   H675    1.084   .     S
C643   C644    1.410   .     A
C643   C647    1.506   .     S
C644   C645    1.415   .     A
C644   N672    1.439   .     S
C645   C646    1.408   .     A
C645   C648    1.503   .     S
C646   H676    1.084   .     S
C647   H677    1.111   .     S
C647   H678    1.110   .     S
C647   H679    1.110   1_554 S
C648   H680    1.111   .     S
C648   H681    1.111   .     S
C648   H682    1.110   .     S
C649   C650    1.404   .     A
C649   N672    1.370   .     A
C649   O684    1.373   .     S
C650   C654    1.405   .     A
C650   C651    1.408   1_554 A
C651   C652    1.409   .     A
C651   C657    1.414   .     A
C651   C650    1.408   1_556 A
C652   C653    1.406   .     A
C652   C660    1.405   .     A
C653   O683    1.373   .     S
C653   N672    1.370   1_556 A
C654   C655    1.397   .     A
C654   H685    1.083   .     S
C655   H687    1.083   .     S
C655   C656    1.405   1_554 A
C656   C657    1.410   .     A
C656   C661    1.405   .     A
C656   C655    1.405   1_556 A
C657   C658    1.408   .     A
C658   C659    1.406   .     A
C658   C662    1.405   .     A
C659   C660    1.398   .     A
C659   H691    1.083   .     S
C660   H686    1.083   .     S
C661   N673    1.369   .     A
C661   O694    1.373   1_556 S
C662   N673    1.371   .     A
C662   O693    1.373   .     S
C663   C668    1.410   .     A
C663   N673    1.440   .     S
C663   C669    1.416   1_655 A
C664   C669    1.507   .     S
C664   H688    1.110   .     S
C664   H695    1.110   .     S
C664   H689    1.109   1_455 S
C665   C669    1.405   .     A
C665   C670    1.402   .     A
C665   H690    1.084   .     S
C666   C668    1.506   .     S
C666   H671    1.110   .     S
C666   H674    1.110   .     S
C666   H692    1.111   .     S
C667   C670    1.403   .     A
C667   C668    1.399   1_455 A
C668   C667    1.399   1_655 A
C669   C663    1.416   1_455 A
N672   C653    1.370   1_554 A
H679   C647    1.110   1_556 S
H689   C664    1.109   1_655 S
O694   C661    1.373   1_554 S
H696   C723    1.084   .     S
C697   C698    1.405   .     A
C697   C702    1.403   .     A
C698   C699    1.406   .     A
C698   H731    1.083   .     S
C699   C700    1.412   .     A
C699   C703    1.506   .     S
C700   C701    1.413   .     A
C700   N728    1.442   .     S
C701   C702    1.401   .     A
C701   C704    1.507   .     S
C702   H732    1.082   .     S
C703   H733    1.111   .     S
C703   H734    1.111   .     S
C703   H735    1.110   .     S
C704   H736    1.110   .     S
C704   H737    1.111   .     S
C704   H738    1.111   .     S
C705   C706    1.406   .     A
C705   N728    1.370   .     A
C705   O740    1.373   .     S
C706   C707    1.409   .     A
C706   C710    1.406   .     A
C707   C708    1.408   .     A
C707   C713    1.414   .     A
C708   C709    1.405   .     A
C708   C716    1.405   .     A
C709   N728    1.370   .     A
C709   O739    1.373   .     S
C710   C711    1.398   .     A
C710   H741    1.083   .     S
C711   C712    1.406   .     A
C711   H743    1.083   .     S
C712   C713    1.409   .     A
C712   C717    1.406   .     A
C713   C714    1.409   .     A
C714   C715    1.405   .     A
C714   C718    1.405   .     A
C715   C716    1.397   .     A
C715   H747    1.083   .     S
C716   H742    1.083   .     S
C717   N729    1.371   .     A
C717   O750    1.373   .     S
C718   N729    1.370   .     A
C718   O749    1.373   .     S
C719   C724    1.415   .     A
C719   C725    1.416   .     A
C719   N729    1.443   .     S
C720   C725    1.505   .     S
C720   H744    1.110   .     S
C720   H745    1.108   .     S
C720   H751    1.110   .     S
C721   C725    1.405   .     A
C721   C726    1.401   .     A
C721   H746    1.084   .     S
C722   C724    1.507   .     S
C722   H727    1.109   .     S
C722   H730    1.111   .     S
C722   H748    1.111   .     S
C723   C724    1.401   .     A
C723   C726    1.399   .     A
