data_lcy+N205+E59
_audit_creation_date              2025-01-21
_audit_creation_method            'Materials Studio'
_symmetry_space_group_name_H-M    'P1'
_symmetry_Int_Tables_number       1
_symmetry_cell_setting            triclinic
loop_
_symmetry_equiv_pos_as_xyz
  x,y,z
_cell_length_a                    35.2894
_cell_length_b                    36.7568
_cell_length_c                    35.9584
_cell_angle_alpha                 103.6911
_cell_angle_beta                  99.0406
_cell_angle_gamma                 96.0619
loop_
_atom_site_label
_atom_site_type_symbol
_atom_site_fract_x
_atom_site_fract_y
_atom_site_fract_z
_atom_site_U_iso_or_equiv
_atom_site_adp_type
_atom_site_occupancy
Y0     Y     0.17586   0.61238   0.86237   0.00000  Uiso   1.00
Y1     Y     0.04952   0.66679   0.87300   0.00000  Uiso   1.00
C2     C     0.03715   0.66294   0.94448   0.00000  Uiso   1.00
C3     C     0.08564   0.59289   0.84101   0.00000  Uiso   1.00
C4     C     0.22646   0.59353   0.91522   0.00000  Uiso   1.00
C5     C     0.18697   0.60417   0.78894   0.00000  Uiso   1.00
C6     C     0.13883   0.68883   0.87315   0.00000  Uiso   1.00
C7     C    -0.00909   0.69035   0.83092   0.00000  Uiso   1.00
O8     O     0.03109   0.63478   0.91534   0.00000  Uiso   1.00
O9     O     0.05060   0.69290   0.93697   0.00000  Uiso   1.00
O10    O     0.11335   0.60865   0.86907   0.00000  Uiso   1.00
O11    O     0.05550   0.60874   0.83655   0.00000  Uiso   1.00
O12    O     0.22863   0.62649   0.90983   0.00000  Uiso   1.00
O13    O     0.19764   0.57050   0.89370   0.00000  Uiso   1.00
O14    O     0.20002   0.63365   0.81599   0.00000  Uiso   1.00
O15    O     0.17037   0.57774   0.80027   0.00000  Uiso   1.00
O16    O     0.10626   0.70079   0.87043   0.00000  Uiso   1.00
O17    O     0.14129   0.65836   0.88346   0.00000  Uiso   1.00
O18    O    -0.00416   0.65629   0.82593   0.00000  Uiso   1.00
O19    O     0.01559   0.71213   0.85833   0.00000  Uiso   1.00
Y20    Y     0.55694   0.87134   0.17077   0.00000  Uiso   1.00
Y21    Y     0.65260   0.91386   0.09502   0.00000  Uiso   1.00
C22    C     0.66297   0.84041   0.07805   0.00000  Uiso   1.00
C23    C     0.63888   0.92168   0.18037   0.00000  Uiso   1.00
C24    C     0.52025   0.80024   0.14529   0.00000  Uiso   1.00
C25    C     0.53673   0.91512   0.23311   0.00000  Uiso   1.00
C26    C     0.56656   0.91420   0.10384   0.00000  Uiso   1.00
C27    C     0.69241   0.95780   0.05947   0.00000  Uiso   1.00
O28    O     0.63415   0.85236   0.06198   0.00000  Uiso   1.00
O29    O     0.68618   0.86632   0.10304   0.00000  Uiso   1.00
O30    O     0.61897   0.88884   0.16513   0.00000  Uiso   1.00
O31    O     0.65978   0.93649   0.16040   0.00000  Uiso   1.00
O32    O     0.50682   0.82795   0.13556   0.00000  Uiso   1.00
O33    O     0.55303   0.80929   0.16805   0.00000  Uiso   1.00
O34    O     0.55911   0.89060   0.23523   0.00000  Uiso   1.00
O35    O     0.52428   0.91666   0.19850   0.00000  Uiso   1.00
O36    O     0.59110   0.92810   0.08676   0.00000  Uiso   1.00
O37    O     0.57632   0.88904   0.12050   0.00000  Uiso   1.00
O38    O     0.70469   0.95445   0.09316   0.00000  Uiso   1.00
O39    O     0.65992   0.93801   0.04394   0.00000  Uiso   1.00
Y40    Y     0.91119   0.16207   0.58448   0.00000  Uiso   1.00
Y41    Y     0.89140   0.06892   0.65854   0.00000  Uiso   1.00
C42    C     0.96435   0.06765   0.69391   0.00000  Uiso   1.00
C43    C     0.91666   0.07721   0.57972   0.00000  Uiso   1.00
C44    C     0.96152   0.22648   0.60105   0.00000  Uiso   1.00
C45    C     0.84954   0.15648   0.52804   0.00000  Uiso   1.00
C46    C     0.87970   0.15109   0.66031   0.00000  Uiso   1.00
C47    C     0.83998   0.00984   0.66044   0.00000  Uiso   1.00
O48    O     0.94041   0.08499   0.71095   0.00000  Uiso   1.00
O49    O     0.95080   0.05154   0.65861   0.00000  Uiso   1.00
O50    O     0.93019   0.10453   0.56701   0.00000  Uiso   1.00
O51    O     0.89019   0.08199   0.59996   0.00000  Uiso   1.00
O52    O     0.93104   0.22366   0.61490   0.00000  Uiso   1.00
O53    O     0.96638   0.19570   0.57891   0.00000  Uiso   1.00
O54    O     0.84837   0.16642   0.56402   0.00000  Uiso   1.00
O55    O     0.88246   0.15003   0.52159   0.00000  Uiso   1.00
O56    O     0.86974   0.12531   0.67655   0.00000  Uiso   1.00
O57    O     0.90611   0.14602   0.64027   0.00000  Uiso   1.00
O58    O     0.85663   0.01070   0.63200   0.00000  Uiso   1.00
O59    O     0.84923   0.03990   0.68747   0.00000  Uiso   1.00
Y60    Y     0.40510   0.31447   0.41920   0.00000  Uiso   1.00
Y61    Y     0.38841   0.40419   0.34103   0.00000  Uiso   1.00
C62    C     0.45527   0.44179   0.33319   0.00000  Uiso   1.00
C63    C     0.39009   0.39799   0.42509   0.00000  Uiso   1.00
C64    C     0.44446   0.31650   0.49021   0.00000  Uiso   1.00
C65    C     0.33584   0.26999   0.39600   0.00000  Uiso   1.00
C66    C     0.41827   0.32462   0.33900   0.00000  Uiso   1.00
C67    C     0.32341   0.41320   0.29581   0.00000  Uiso   1.00
O68    O     0.44193   0.40830   0.31426   0.00000  Uiso   1.00
O69    O     0.43424   0.45589   0.35636   0.00000  Uiso   1.00
O70    O     0.41036   0.37345   0.41214   0.00000  Uiso   1.00
O71    O     0.37994   0.41986   0.40406   0.00000  Uiso   1.00
O72    O     0.45290   0.29791   0.45894   0.00000  Uiso   1.00
O73    O     0.41605   0.33383   0.48452   0.00000  Uiso   1.00
O74    O     0.33979   0.30521   0.41081   0.00000  Uiso   1.00
O75    O     0.36775   0.25765   0.39396   0.00000  Uiso   1.00
O76    O     0.38998   0.34313   0.34380   0.00000  Uiso   1.00
O77    O     0.43026   0.30710   0.36432   0.00000  Uiso   1.00
O78    O     0.33595   0.43281   0.33017   0.00000  Uiso   1.00
O79    O     0.34495   0.38930   0.28424   0.00000  Uiso   1.00
C80    C     0.27467   0.73678   0.92643   0.00000  Uiso   1.00
C81    C     0.34303   0.76391   0.94367   0.00000  Uiso   1.00
H82    H     0.38366   0.90568   0.05746   0.00000  Uiso   1.00
C83    C     0.30123   0.77864   0.99077   0.00000  Uiso   1.00
C84    C     0.27000   0.75506   0.96418   0.00000  Uiso   1.00
N85    N     0.49636   0.89796   0.08638   0.00000  Uiso   1.00
N86    N     0.20433   0.72404   0.89612   0.00000  Uiso   1.00
O87    O     0.45544   0.93643   0.06896   0.00000  Uiso   1.00
O88    O     0.24741   0.69056   0.86926   0.00000  Uiso   1.00
H89    H     0.52747   0.95220   0.09118   0.00000  Uiso   1.00
H90    H     0.52618   0.93976   0.13648   0.00000  Uiso   1.00
H91    H     0.33154   0.85500   0.02087   0.00000  Uiso   1.00
H92    H     0.46768   0.83039   0.03270   0.00000  Uiso   1.00
H93    H     0.41533   0.77956   0.99690   0.00000  Uiso   1.00
H94    H     0.49956   0.87079   0.08916   0.00000  Uiso   1.00
H95    H     0.31656   0.72640   0.88845   0.00000  Uiso   1.00
H96    H     0.18144   0.69289   0.83702   0.00000  Uiso   1.00
H97    H     0.16270   0.73516   0.85343   0.00000  Uiso   1.00
H98    H     0.37085   0.76758   0.93485   0.00000  Uiso   1.00
H99    H     0.24235   0.75136   0.97320   0.00000  Uiso   1.00
H100   H     0.29668   0.79304   0.01933   0.00000  Uiso   1.00
H101   H     0.19900   0.74506   0.91917   0.00000  Uiso   1.00
C102   C     0.39096   0.87819   0.04469   0.00000  Uiso   1.00
C103   C     0.46128   0.90415   0.06830   0.00000  Uiso   1.00
C104   C     0.52852   0.92856   0.10561   0.00000  Uiso   1.00
C105   C     0.36935   0.81332   0.00607   0.00000  Uiso   1.00
C106   C     0.42984   0.87216   0.04824   0.00000  Uiso   1.00
C107   C     0.36108   0.84909   0.02403   0.00000  Uiso   1.00
C108   C     0.43809   0.83600   0.03120   0.00000  Uiso   1.00
C109   C     0.40814   0.80692   1.01030   0.00000  Uiso   1.00
C110   C     0.31183   0.74050   0.91707   0.00000  Uiso   1.00
C111   C     0.24118   0.71535   0.89608   0.00000  Uiso   1.00
C112   C     0.17233   0.71024   0.86260   0.00000  Uiso   1.00
C113   C     0.33777   0.78415   0.98038   0.00000  Uiso   1.00
C114   C     0.47917   0.02985   0.26791   0.00000  Uiso   1.00
C115   C     0.45417   0.08836   0.29253   0.00000  Uiso   1.00
H116   H     0.52486   0.22443   0.26049   0.00000  Uiso   1.00
C117   C     0.49025   0.08350   0.24012   0.00000  Uiso   1.00
C118   C     0.49447   0.04623   0.24084   0.00000  Uiso   1.00
N119   N     0.43775   0.28345   0.28501   0.00000  Uiso   1.00
N120   N     0.51763   0.97620   0.26127   0.00000  Uiso   1.00
O121   O     0.50253   0.28604   0.29567   0.00000  Uiso   1.00
O122   O     0.46269   0.97384   0.28542   0.00000  Uiso   1.00
H123   H     0.46768   0.33898   0.31518   0.00000  Uiso   1.00
H124   H     0.42185   0.33690   0.28396   0.00000  Uiso   1.00
H125   H     0.52594   0.15716   0.25385   0.00000  Uiso   1.00
H126   H     0.41183   0.21367   0.29229   0.00000  Uiso   1.00
H127   H     0.41186   0.14619   0.28338   0.00000  Uiso   1.00
H128   H     0.41072   0.26710   0.27227   0.00000  Uiso   1.00
H129   H     0.44543   0.03918   0.31384   0.00000  Uiso   1.00
H130   H     0.50380   0.92493   0.27845   0.00000  Uiso   1.00
H131   H     0.55353   0.94708   0.29221   0.00000  Uiso   1.00
H132   H     0.43927   0.10421   0.31361   0.00000  Uiso   1.00
H133   H     0.50954   0.03039   0.21992   0.00000  Uiso   1.00
H134   H     0.50244   0.09523   0.21894   0.00000  Uiso   1.00
H135   H     0.53834   0.99207   0.25141   0.00000  Uiso   1.00
C136   C     0.49991   0.20756   0.26531   0.00000  Uiso   1.00
C137   C     0.47064   0.26651   0.28601   0.00000  Uiso   1.00
C138   C     0.43775   0.32322   0.30474   0.00000  Uiso   1.00
C139   C     0.46897   0.14602   0.26809   0.00000  Uiso   1.00
C140   C     0.46832   0.22461   0.27675   0.00000  Uiso   1.00
C141   C     0.50033   0.16884   0.26114   0.00000  Uiso   1.00
C142   C     0.43644   0.20167   0.28266   0.00000  Uiso   1.00
C143   C     0.43675   0.16287   0.27825   0.00000  Uiso   1.00
C144   C     0.45803   0.05107   0.29297   0.00000  Uiso   1.00
C145   C     0.48554   0.99138   0.27152   0.00000  Uiso   1.00
C146   C     0.52744   0.94045   0.26864   0.00000  Uiso   1.00
C147   C     0.47072   0.10534   0.26651   0.00000  Uiso   1.00
C148   C     0.56981   0.29891   0.53006   0.00000  Uiso   1.00
C149   C     0.63205   0.28795   0.51209   0.00000  Uiso   1.00
H150   H     0.68578   0.14949   0.52947   0.00000  Uiso   1.00
C151   C     0.60651   0.25518   0.55595   0.00000  Uiso   1.00
C152   C     0.57402   0.27364   0.55372   0.00000  Uiso   1.00
N153   N     0.78927   0.17872   0.50710   0.00000  Uiso   1.00
N154   N     0.49961   0.29954   0.52939   0.00000  Uiso   1.00
O155   O     0.75909   0.14441   0.54084   0.00000  Uiso   1.00
O156   O     0.53735   0.34922   0.52128   0.00000  Uiso   1.00
H157   H     0.79981   0.12183   0.48972   0.00000  Uiso   1.00
H158   H     0.82526   0.15474   0.46921   0.00000  Uiso   1.00
H159   H     0.63290   0.18686   0.53195   0.00000  Uiso   1.00
H160   H     0.76547   0.24903   0.53440   0.00000  Uiso   1.00
H161   H     0.71231   0.28661   0.53716   0.00000  Uiso   1.00
H162   H     0.79147   0.20288   0.49662   0.00000  Uiso   1.00
H163   H     0.59713   0.32621   0.49181   0.00000  Uiso   1.00
H164   H     0.47325   0.34822   0.54742   0.00000  Uiso   1.00
H165   H     0.44495   0.30409   0.54522   0.00000  Uiso   1.00
H166   H     0.65385   0.29333   0.49518   0.00000  Uiso   1.00
H167   H     0.55242   0.26838   0.57088   0.00000  Uiso   1.00
H168   H     0.60885   0.23576   0.57435   0.00000  Uiso   1.00
H169   H     0.49651   0.27113   0.53009   0.00000  Uiso   1.00
C170   C     0.69207   0.17950   0.53165   0.00000  Uiso   1.00
C171   C     0.76044   0.17190   0.52733   0.00000  Uiso   1.00
C172   C     0.81524   0.15129   0.49623   0.00000  Uiso   1.00
C173   C     0.66845   0.23967   0.53474   0.00000  Uiso   1.00
C174   C     0.72966   0.19612   0.53126   0.00000  Uiso   1.00
C175   C     0.66181   0.20093   0.53316   0.00000  Uiso   1.00
C176   C     0.73663   0.23509   0.53364   0.00000  Uiso   1.00
C177   C     0.70625   0.25665   0.53530   0.00000  Uiso   1.00
C178   C     0.59951   0.30653   0.50993   0.00000  Uiso   1.00
C179   C     0.53478   0.31757   0.52671   0.00000  Uiso   1.00
C180   C     0.46511   0.31819   0.53035   0.00000  Uiso   1.00
C181   C     0.63560   0.26168   0.53472   0.00000  Uiso   1.00
C182   C     0.71140   0.96547   0.93180   0.00000  Uiso   1.00
C183   C     0.70252   0.95649   0.86143   0.00000  Uiso   1.00
H184   H     0.84108  -0.05196   0.79357   0.00000  Uiso   1.00
C185   C     0.76614   0.97960   0.90144   0.00000  Uiso   1.00
C186   C     0.75094   0.97799   0.93469   0.00000  Uiso   1.00
N187   N     0.79982  -0.01801   0.69938   0.00000  Uiso   1.00
N188   N     0.71949   0.96364   0.00274   0.00000  Uiso   1.00
O189   O     0.83030  -0.06321   0.71823   0.00000  Uiso   1.00
O190   O     0.66041   0.96486   0.96624   0.00000  Uiso   1.00
H191   H     0.82721  -0.04909   0.65557   0.00000  Uiso   1.00
H192   H     0.78681  -0.02811   0.63819   0.00000  Uiso   1.00
H193   H     0.81316  -0.04969   0.85148   0.00000  Uiso   1.00
H194   H     0.73718  -0.01997   0.73711   0.00000  Uiso   1.00
H195   H     0.70981   0.98417   0.79595   0.00000  Uiso   1.00
H196   H     0.78326   0.00369   0.70652   0.00000  Uiso   1.00
H197   H     0.65657   0.94577   0.89168   0.00000  Uiso   1.00
H198   H     0.69553   1.00674   0.03763   0.00000  Uiso   1.00
H199   H     0.74152   0.99762   0.05970   0.00000  Uiso   1.00
H200   H     0.68327   0.94730   0.83336   0.00000  Uiso   1.00
H201   H     0.77015   0.98708   0.96273   0.00000  Uiso   1.00
H202   H     0.79666   0.98991   0.90499   0.00000  Uiso   1.00
H203   H     0.74438   0.95072   0.00147   0.00000  Uiso   1.00
C204   C     0.81245  -0.04393   0.79374   0.00000  Uiso   1.00
C205   C     0.80840  -0.03985   0.72490   0.00000  Uiso   1.00
C206   C     0.81255  -0.02365   0.66171   0.00000  Uiso   1.00
C207   C     0.75933   0.96777   0.82872   0.00000  Uiso   1.00
C208   C     0.79171  -0.03565   0.76087   0.00000  Uiso   1.00
C209   C     0.79655  -0.04220   0.82716   0.00000  Uiso   1.00
C210   C     0.75449  -0.02551   0.76226   0.00000  Uiso   1.00
C211   C     0.73850   0.97624   0.79584   0.00000  Uiso   1.00
C212   C     0.68725   0.95528   0.89483   0.00000  Uiso   1.00
C213   C     0.69511   0.96473   0.96723   0.00000  Uiso   1.00
C214   C     0.71314   0.98399   0.04079   0.00000  Uiso   1.00
C215   C     0.74233   0.96825   0.86424   0.00000  Uiso   1.00
C216   C     0.71359   0.98171   0.31126   0.00000  Uiso   1.00
C217   C     0.74970   1.01444   0.37636   0.00000  Uiso   1.00
H218   H     0.84033   0.93020   0.46454   0.00000  Uiso   1.00
C219   C     0.76687   0.95528   0.34226   0.00000  Uiso   1.00
C220   C     0.73756   0.95328   0.31037   0.00000  Uiso   1.00
N221   N     0.91865   0.02263   0.52834   0.00000  Uiso   1.00
N222   N     0.66732   0.94784   0.24924   0.00000  Uiso   1.00
O223   O     0.88117   0.96885   0.53171   0.00000  Uiso   1.00
O224   O     0.66747   1.00925   0.27738   0.00000  Uiso   1.00
H225   H     0.91988   0.02138   0.58721   0.00000  Uiso   1.00
H226   H     0.96354   0.04449   0.57765   0.00000  Uiso   1.00
H227   H     0.79202   0.92719   0.40675   0.00000  Uiso   1.00
H228   H     0.86900   0.05095   0.48189   0.00000  Uiso   1.00
H229   H     0.82196   0.04777   0.42334   0.00000  Uiso   1.00
H230   H     0.92991   0.03594   0.50888   0.00000  Uiso   1.00
H231   H     0.70260   1.03483   0.34649   0.00000  Uiso   1.00
H232   H     0.62927   0.97416   0.21479   0.00000  Uiso   1.00
H233   H     0.60800   0.93390   0.22705   0.00000  Uiso   1.00
H234   H     0.75343   0.03814   0.40178   0.00000  Uiso   1.00
H235   H     0.73446   0.92962   0.28511   0.00000  Uiso   1.00
H236   H     0.78491   0.93307   0.34056   0.00000  Uiso   1.00
H237   H     0.67670   0.92221   0.25109   0.00000  Uiso   1.00
C238   C     0.83666   0.95597   0.45560   0.00000  Uiso   1.00
C239   C     0.88638  -0.00737   0.51369   0.00000  Uiso   1.00
C240   C     0.93134   0.04008   0.57009   0.00000  Uiso   1.00
C241   C     0.80325   0.98723   0.41026   0.00000  Uiso   1.00
C242   C     0.85882   0.99065   0.47739   0.00000  Uiso   1.00
C243   C     0.80925   0.95423   0.42235   0.00000  Uiso   1.00
C244   C     0.85312   0.02360   0.46519   0.00000  Uiso   1.00
C245   C     0.82572   0.02188   0.43195   0.00000  Uiso   1.00
C246   C     0.72037   1.01240   0.34464   0.00000  Uiso   1.00
C247   C     0.68175   0.98048   0.27810   0.00000  Uiso   1.00
C248   C     0.63394   0.94570   0.21853   0.00000  Uiso   1.00
C249   C     0.77304   0.98569   0.37578   0.00000  Uiso   1.00
C250   C     0.22516   0.52645   0.67756   0.00000  Uiso   1.00
C251   C     0.22926   0.49515   0.61099   0.00000  Uiso   1.00
H252   H     0.37572   0.52454   0.56259   0.00000  Uiso   1.00
C253   C     0.28804   0.52039   0.65916   0.00000  Uiso   1.00
C254   C     0.26589   0.53228   0.68747   0.00000  Uiso   1.00
N255   N     0.35530   0.42944   0.47491   0.00000  Uiso   1.00
N256   N     0.21412   0.57714   0.73228   0.00000  Uiso   1.00
O257   O     0.40265   0.46727   0.52119   0.00000  Uiso   1.00
O258   O     0.16791   0.52745   0.70232   0.00000  Uiso   1.00
H259   H     0.40382   0.40124   0.48529   0.00000  Uiso   1.00
H260   H     0.35925   0.37159   0.46040   0.00000  Uiso   1.00
H261   H     0.33439   0.54380   0.61011   0.00000  Uiso   1.00
H262   H     0.29903   0.41828   0.51439   0.00000  Uiso   1.00
H263   H     0.25824   0.43718   0.56208   0.00000  Uiso   1.00
H264   H     0.32627   0.42556   0.46109   0.00000  Uiso   1.00
H265   H     0.17584   0.50227   0.63076   0.00000  Uiso   1.00
H266   H     0.15757   0.59330   0.73030   0.00000  Uiso   1.00
H267   H     0.19718   0.63124   0.74427   0.00000  Uiso   1.00
H268   H     0.21456   0.48171   0.58132   0.00000  Uiso   1.00
H269   H     0.28079   0.54619   0.71692   0.00000  Uiso   1.00
H270   H     0.31939   0.52555   0.66746   0.00000  Uiso   1.00
H271   H     0.24325   0.58909   0.73743   0.00000  Uiso   1.00
C272   C     0.34977   0.50561   0.56182   0.00000  Uiso   1.00
C273   C     0.36794   0.45640   0.50948   0.00000  Uiso   1.00
C274   C     0.37748   0.39881   0.46293   0.00000  Uiso   1.00
C275   C     0.29336   0.49184   0.59000   0.00000  Uiso   1.00
C276   C     0.34025   0.47031   0.53435   0.00000  Uiso   1.00
C277   C     0.32645   0.51636   0.58928   0.00000  Uiso   1.00
C278   C     0.30650   0.44623   0.53433   0.00000  Uiso   1.00
C279   C     0.28329   0.45688   0.56190   0.00000  Uiso   1.00
C280   C     0.20714   0.50694   0.63928   0.00000  Uiso   1.00
C281   C     0.20097   0.54308   0.70535   0.00000  Uiso   1.00
C282   C     0.18765   0.60241   0.74730   0.00000  Uiso   1.00
C283   C     0.26991   0.50245   0.62046   0.00000  Uiso   1.00
C284   C     0.26942   0.44730   0.17694   0.00000  Uiso   1.00
C285   C     0.23548   0.46162   0.11888   0.00000  Uiso   1.00
H286   H     0.27300   0.60886   0.09276   0.00000  Uiso   1.00
C287   C     0.29530   0.50107   0.15503   0.00000  Uiso   1.00
C288   C     0.29818   0.47844   0.18135   0.00000  Uiso   1.00
N289   N     0.23827   0.56950   0.97265   0.00000  Uiso   1.00
N290   N     0.29096   0.43604   0.24250   0.00000  Uiso   1.00
O291   O     0.26443   0.61954   0.02526   0.00000  Uiso   1.00
O292   O     0.25194   0.39135   0.19407   0.00000  Uiso   1.00
H293   H     0.27961   0.60685   0.95685   0.00000  Uiso   1.00
H294   H     0.26929   0.55918   0.92685   0.00000  Uiso   1.00
H295   H     0.27823   0.56996   0.13912   0.00000  Uiso   1.00
H296   H     0.23807   0.50745  -0.00212   0.00000  Uiso   1.00
H297   H     0.24314   0.46909   0.04426   0.00000  Uiso   1.00
H298   H     0.21648   0.54598   0.96320   0.00000  Uiso   1.00
H299   H     0.21534   0.41570   0.14109   0.00000  Uiso   1.00
H300   H     0.26878   0.38745   0.26032   0.00000  Uiso   1.00
H301   H     0.26873   0.43279   0.29258   0.00000  Uiso   1.00
H302   H     0.21068   0.45489   0.09520   0.00000  Uiso   1.00
H303   H     0.32326   0.48532   0.20461   0.00000  Uiso   1.00
H304   H     0.31793   0.52470   0.15895   0.00000  Uiso   1.00
H305   H     0.30677   0.46325   0.25214   0.00000  Uiso   1.00
C306   C     0.26614   0.57840   0.08176   0.00000  Uiso   1.00
C307   C     0.25270   0.58561   0.01353   0.00000  Uiso   1.00
C308   C     0.25611   0.58251   0.94321   0.00000  Uiso   1.00
C309   C     0.26093   0.51651   0.09531   0.00000  Uiso   1.00
C310   C     0.25447   0.56161   0.04153   0.00000  Uiso   1.00
C311   C     0.26939   0.55613   0.10833   0.00000  Uiso   1.00
C312   C     0.24619   0.52184   0.02855   0.00000  Uiso   1.00
C313   C     0.24922   0.49962   0.05517   0.00000  Uiso   1.00
C314   C     0.23819   0.43918   0.14523   0.00000  Uiso   1.00
C315   C     0.27070   0.42308   0.20482   0.00000  Uiso   1.00
C316   C     0.28549   0.41632   0.27265   0.00000  Uiso   1.00
C317   C     0.26397   0.49281   0.12347   0.00000  Uiso   1.00
C318   C     0.06542   0.26501   0.54458   0.00000  Uiso   1.00
C319   C     0.11668   0.28652   0.51333   0.00000  Uiso   1.00
H320   H     0.19237   0.17369   0.42335   0.00000  Uiso   1.00
C321   C     0.11077   0.22303   0.52217   0.00000  Uiso   1.00
C322   C     0.07875   0.22978   0.53996   0.00000  Uiso   1.00
N323   N     0.27179   0.25206   0.40896   0.00000  Uiso   1.00
N324   N     0.02263   0.25690   0.59165   0.00000  Uiso   1.00
O325   O     0.26201   0.19161   0.41245   0.00000  Uiso   1.00
O326   O     0.00933   0.29262   0.54977   0.00000  Uiso   1.00
H327   H     0.30190   0.21529   0.37199   0.00000  Uiso   1.00
H328   H     0.28388   0.25271   0.35363   0.00000  Uiso   1.00
H329   H     0.13987   0.18507   0.45914   0.00000  Uiso   1.00
H330   H     0.24752   0.28911   0.47517   0.00000  Uiso   1.00
H331   H     0.19564   0.30036   0.51181   0.00000  Uiso   1.00
H332   H     0.26416   0.27903   0.41613   0.00000  Uiso   1.00
H333   H     0.07510   0.32060   0.53433   0.00000  Uiso   1.00
H334   H     0.97253   0.28395   0.59930   0.00000  Uiso   1.00
H335   H     0.99824   0.27373   0.64178   0.00000  Uiso   1.00
H336   H     0.13028   0.30873   0.50258   0.00000  Uiso   1.00
H337   H     0.06411   0.20713   0.54940   0.00000  Uiso   1.00
H338   H     0.12028   0.19559   0.51906   0.00000  Uiso   1.00
H339   H     0.04204   0.24097   0.60311   0.00000  Uiso   1.00
C340   C     0.19344   0.20139   0.44267   0.00000  Uiso   1.00
C341   C     0.25414   0.22339   0.42167   0.00000  Uiso   1.00
C342   C     0.29751   0.24538   0.38035   0.00000  Uiso   1.00
C343   C     0.16312   0.24382   0.48801   0.00000  Uiso   1.00
C344   C     0.22363   0.23070   0.44579   0.00000  Uiso   1.00
C345   C     0.16342   0.20794   0.46342   0.00000  Uiso   1.00
C346   C     0.22409   0.26621   0.47115   0.00000  Uiso   1.00
C347   C     0.19425   0.27270   0.49223   0.00000  Uiso   1.00
C348   C     0.08470   0.29319   0.53101   0.00000  Uiso   1.00
C349   C     0.03078   0.27237   0.56205   0.00000  Uiso   1.00
C350   C     0.98863   0.26278   0.60974   0.00000  Uiso   1.00
C351   C     0.13007   0.25130   0.50847   0.00000  Uiso   1.00
C352   C     0.96438   0.78051   0.74975   0.00000  Uiso   1.00
C353   C     0.94658   0.83611   0.72954   0.00000  Uiso   1.00
H354   H     0.05337   0.97435   0.79365   0.00000  Uiso   1.00
C355   C     0.01416   0.83245   0.75154   0.00000  Uiso   1.00
C356   C     0.00368   0.79656   0.75687   0.00000  Uiso   1.00
N357   N     1.00958   0.02644   0.71012   0.00000  Uiso   1.00
N358   N    -0.02414   0.73183   0.78866   0.00000  Uiso   1.00
O359   O     0.03559   0.03385   0.77460   0.00000  Uiso   1.00
O360   O     0.92105   0.72538   0.74217   0.00000  Uiso   1.00
H361   H     1.00966   0.08265   0.74429   0.00000  Uiso   1.00
H362   H     1.02555   0.07892   0.69845   0.00000  Uiso   1.00
H363   H     0.03890   0.90763   0.79196   0.00000  Uiso   1.00
H364   H     0.96856   0.95636   0.68774   0.00000  Uiso   1.00
H365   H     0.95544   0.88931   0.68524   0.00000  Uiso   1.00
H366   H     1.00596   1.00833   0.68223   0.00000  Uiso   1.00
H367   H     0.90560   0.78850   0.72865   0.00000  Uiso   1.00
H368   H     0.94254   0.67888   0.78375   0.00000  Uiso   1.00
H369   H    -0.06029   0.71640   0.82549   0.00000  Uiso   1.00
H370   H     0.92388   0.85120   0.71967   0.00000  Uiso   1.00
H371   H     0.02654   0.78171   0.76674   0.00000  Uiso   1.00
H372   H     0.04463   0.84426   0.75771   0.00000  Uiso   1.00
H373   H     0.00214   0.74859   0.80337   0.00000  Uiso   1.00
C374   C     0.03212   0.95606   0.76966   0.00000  Uiso   1.00
C375   C     1.02003   1.01199   0.74351   0.00000  Uiso   1.00
C376   C     1.00452   0.06600   0.71331   0.00000  Uiso   1.00
C377   C     0.99622   0.89312   0.73827   0.00000  Uiso   1.00
C378   C     1.01254   0.97077   0.74064   0.00000  Uiso   1.00
C379   C     0.02412   0.91773   0.76847   0.00000  Uiso   1.00
C380   C     0.98494   0.94605   0.71016   0.00000  Uiso   1.00
C381   C     0.97696   0.90764   0.70895   0.00000  Uiso   1.00
C382   C     0.93609   0.80021   0.73483   0.00000  Uiso   1.00
C383   C     0.95229   0.74421   0.75897   0.00000  Uiso   1.00
C384   C    -0.04056   0.70357   0.80666   0.00000  Uiso   1.00
C385   C     0.98564   0.85312   0.73898   0.00000  Uiso   1.00
C386   C     0.90461   0.29005   0.69739   0.00000  Uiso   1.00
C387   C     0.93160   0.35520   0.70228   0.00000  Uiso   1.00
H388   H     0.06898   0.42427   0.81643   0.00000  Uiso   1.00
C389   C    -0.05165   0.32769   0.75643   0.00000  Uiso   1.00
C390   C     0.92462   0.29388   0.73550   0.00000  Uiso   1.00
N391   N     0.05654   0.52865   0.80427   0.00000  Uiso   1.00
N392   N     0.88624   0.21998   0.68109   0.00000  Uiso   1.00
O393   O     0.08522   0.49619   0.84351   0.00000  Uiso   1.00
O394   O     0.85184   0.25565   0.65002   0.00000  Uiso   1.00
H395   H     0.11704   0.54761   0.82152   0.00000  Uiso   1.00
H396   H     0.09253   0.56578   0.78357   0.00000  Uiso   1.00
H397   H     0.02468   0.36606   0.78331   0.00000  Uiso   1.00
H398   H     0.98166   0.48974   0.78076   0.00000  Uiso   1.00
H399   H     0.93802   0.43147   0.74702   0.00000  Uiso   1.00
H400   H     0.03267   0.53037   0.78395   0.00000  Uiso   1.00
H401   H     0.89297   0.31924   0.65197   0.00000  Uiso   1.00
H402   H     0.84437   0.18504   0.63356   0.00000  Uiso   1.00
H403   H     0.83641   0.18331   0.68119   0.00000  Uiso   1.00
H404   H     0.93439   0.37846   0.68870   0.00000  Uiso   1.00
H405   H     0.92163   0.27109   0.74961   0.00000  Uiso   1.00
H406   H    -0.03651   0.32974   0.78567   0.00000  Uiso   1.00
H407   H     0.91072   0.21874   0.70101   0.00000  Uiso   1.00
C408   C     0.04035   0.42637   0.80169   0.00000  Uiso   1.00
C409   C     0.05837   0.49675   0.81780   0.00000  Uiso   1.00
C410   C     0.08999   0.55825   0.81136   0.00000  Uiso   1.00
C411   C    -0.02182   0.39422   0.76199   0.00000  Uiso   1.00
C412   C     0.02948   0.46189   0.80037   0.00000  Uiso   1.00
C413   C     0.01502   0.39297   0.78272   0.00000  Uiso   1.00
C414   C    -0.00809   0.46310   0.78103   0.00000  Uiso   1.00
C415   C     0.96666   0.42963   0.76188   0.00000  Uiso   1.00
C416   C     0.90803   0.32127   0.68123   0.00000  Uiso   1.00
C417   C     0.87921   0.25430   0.67482   0.00000  Uiso   1.00
C418   C     0.85903   0.18499   0.66311   0.00000  Uiso   1.00
C419   C     0.95223   0.35865   0.74003   0.00000  Uiso   1.00
C420   C     0.92772   0.69137   0.98662   0.00000  Uiso   1.00
C421   C     0.85898   0.68933   0.98975   0.00000  Uiso   1.00
H422   H     0.81364   0.80108   0.10936   0.00000  Uiso   1.00
C423   C     0.90336   0.74744   1.01988   0.00000  Uiso   1.00
C424   C     0.93413   0.72967   1.00757   0.00000  Uiso   1.00
N425   N     0.70393   0.79410   0.05383   0.00000  Uiso   1.00
N426   N     0.99758   0.68227   0.99369   0.00000  Uiso   1.00
O427   O     0.74016   0.79305   0.11068   0.00000  Uiso   1.00
O428   O     0.95217   0.64394   0.94563   0.00000  Uiso   1.00
H429   H     0.66907   0.79015   0.09672   0.00000  Uiso   1.00
H430   H     0.64315   0.78236   0.04797   0.00000  Uiso   1.00
H431   H     0.86752   0.77526   0.08290   0.00000  Uiso   1.00
H432   H     0.73585   0.74562   0.00056   0.00000  Uiso   1.00
H433   H     0.79006   0.72067   0.97374   0.00000  Uiso   1.00
H434   H     0.70275   0.79380   0.02451   0.00000  Uiso   1.00
H435   H     0.88373   0.64204   0.96140   0.00000  Uiso   1.00
H436   H     0.02097   0.63095   0.98385   0.00000  Uiso   1.00
H437   H     0.05591   0.67276   1.00585   0.00000  Uiso   1.00
H438   H     0.83031   0.67287   0.98323   0.00000  Uiso   1.00
H439   H     0.96269   0.74626   1.01400   0.00000  Uiso   1.00
H440   H     0.90924   0.77699   0.03593   0.00000  Uiso   1.00
H441   H     0.00424   0.70458   1.01884   0.00000  Uiso   1.00
C442   C     0.80820   0.78387   0.07958   0.00000  Uiso   1.00
C443   C     0.73741   0.78827   0.07548   0.00000  Uiso   1.00
C444   C     0.66842   0.79968   0.06953   0.00000  Uiso   1.00
C445   C     0.83307   0.74559   0.02628   0.00000  Uiso   1.00
C446   C     0.77045   0.77571   0.05719   0.00000  Uiso   1.00
C447   C     0.83913   0.76926   0.06429   0.00000  Uiso   1.00
C448   C     0.76457   0.75318   0.01859   0.00000  Uiso   1.00
C449   C     0.79556   0.73836   1.00333   0.00000  Uiso   1.00
C450   C     0.88969   0.67158   0.97750   0.00000  Uiso   1.00
C451   C     0.95991   0.67133   0.97377   0.00000  Uiso   1.00
C452   C     0.02906   0.66093   0.98363   0.00000  Uiso   1.00
C453   C     0.86546   0.72739   1.01139   0.00000  Uiso   1.00
C454   C     0.48423   0.55880   0.30507   0.00000  Uiso   1.00
C455   C     0.50415   0.62065   0.29523   0.00000  Uiso   1.00
H456   H     0.40660   0.67576   0.18090   0.00000  Uiso   1.00
C457   C     0.44956   0.57877   0.25104   0.00000  Uiso   1.00
C458   C     0.45412   0.55180   0.27248   0.00000  Uiso   1.00
N459   N     0.49573   0.74284   0.16249   0.00000  Uiso   1.00
N460   N     0.48325   0.49204   0.30885   0.00000  Uiso   1.00
O461   O     0.43930   0.70576   0.13225   0.00000  Uiso   1.00
O462   O     0.50449   0.54064   0.36198   0.00000  Uiso   1.00
H463   H     0.51592   0.74375   0.11054   0.00000  Uiso   1.00
H464   H     0.47028   0.76106   0.11364   0.00000  Uiso   1.00
H465   H     0.40973   0.63383   0.22460   0.00000  Uiso   1.00
H466   H     0.53185   0.69607   0.20041   0.00000  Uiso   1.00
H467   H     0.53489   0.65428   0.24336   0.00000  Uiso   1.00
H468   H     0.51820   0.75034   0.18680   0.00000  Uiso   1.00
H469   H     0.53201   0.60000   0.34168   0.00000  Uiso   1.00
H470   H     0.51089   0.47441   0.35777   0.00000  Uiso   1.00
H471   H     0.50792   0.44264   0.31080   0.00000  Uiso   1.00
H472   H     0.52371   0.64721   0.30478   0.00000  Uiso   1.00
H473   H     0.43398   0.52560   0.26347   0.00000  Uiso   1.00
H474   H     0.42676   0.57221   0.22547   0.00000  Uiso   1.00
H475   H     0.47202   0.48301   0.27902   0.00000  Uiso   1.00
C476   C     0.43478   0.67161   0.19477   0.00000  Uiso   1.00
C477   C     0.46697   0.71336   0.15926   0.00000  Uiso   1.00
C478   C     0.49938   0.76052   0.13046   0.00000  Uiso   1.00
C479   C     0.47253   0.64068   0.23742   0.00000  Uiso   1.00
C480   C     0.46898   0.68999   0.18778   0.00000  Uiso   1.00
C481   C     0.43652   0.64736   0.21949   0.00000  Uiso   1.00
C482   C     0.50492   0.68363   0.20615   0.00000  Uiso   1.00
C483   C     0.50666   0.65935   0.23067   0.00000  Uiso   1.00
C484   C     0.50868   0.59379   0.31660   0.00000  Uiso   1.00
C485   C     0.49103   0.53009   0.32725   0.00000  Uiso   1.00
C486   C     0.49208   0.46258   0.32862   0.00000  Uiso   1.00
C487   C     0.47496   0.61328   0.26186   0.00000  Uiso   1.00
loop_
_geom_bond_atom_site_label_1
_geom_bond_atom_site_label_2
_geom_bond_distance
_geom_bond_site_symmetry_2
_ccdc_geom_bond_type
Y0     O10     2.250   .     S
Y0     O12     2.242   .     S
Y0     O13     2.242   .     S
Y0     O14     2.245   .     S
Y0     O15     2.261   .     S
Y0     O17     2.245   .     S
Y1     O8      2.263   .     S
Y1     O9      2.266   .     S
Y1     O11     2.274   .     S
Y1     O16     2.272   .     S
Y1     O18     2.265   .     S
Y1     O19     2.265   .     S
C2     O8      1.259   .     A
C2     O9      1.257   .     A
C2     C452    1.497   .     S
C3     O10     1.266   .     A
C3     O11     1.272   .     A
C3     C410    1.494   .     S
C4     O12     1.268   .     A
C4     O13     1.269   .     A
C4     C308    1.491   .     S
C5     O14     1.260   .     A
C5     O15     1.263   .     A
C5     C282    1.487   .     S
C6     O16     1.271   .     A
C6     O17     1.268   .     A
C6     C112    1.499   .     S
C7     O18     1.257   .     A
C7     O19     1.257   .     A
C7     C384    1.497   .     S
Y20    O30     2.270   .     S
Y20    O32     2.240   .     S
Y20    O33     2.248   .     S
Y20    O34     2.244   .     S
Y20    O35     2.253   .     S
Y20    O37     2.238   .     S
Y21    O28     2.263   .     S
Y21    O29     2.260   .     S
Y21    O31     2.264   .     S
Y21    O36     2.277   .     S
Y21    O38     2.262   .     S
Y21    O39     2.259   .     S
C22    O28     1.261   .     A
C22    O29     1.258   .     A
C22    C444    1.495   .     S
C23    O30     1.280   .     A
C23    O31     1.274   .     A
C23    C248    1.492   .     S
C24    O32     1.266   .     A
C24    O33     1.269   .     A
C24    C478    1.496   .     S
C25    O34     1.267   .     A
C25    O35     1.270   .     A
C25    C146    1.497   .     S
C26    O36     1.269   .     A
C26    O37     1.264   .     A
C26    C104    1.498   .     S
C27    O38     1.260   .     A
C27    O39     1.259   .     A
C27    C214    1.492   .     S
Y40    O50     2.263   .     S
Y40    O52     2.250   .     S
Y40    O53     2.257   .     S
Y40    O54     2.258   .     S
Y40    O55     2.247   .     S
Y40    O57     2.248   .     S
Y41    O48     2.264   .     S
Y41    O49     2.255   .     S
Y41    O51     2.264   .     S
Y41    O56     2.271   .     S
Y41    O58     2.260   .     S
Y41    O59     2.261   .     S
C42    O48     1.260   .     A
C42    O49     1.258   .     A
C42    C376    1.492   .     S
C43    O50     1.276   .     A
C43    O51     1.273   .     A
C43    C240    1.494   .     S
C44    O52     1.259   .     A
C44    O53     1.265   .     A
C44    C350    1.494   .     S
C45    O54     1.267   .     A
C45    O55     1.256   .     A
C45    C172    1.491   .     S
C46    O56     1.273   .     A
C46    O57     1.268   .     A
C46    C418    1.500   .     S
C47    O58     1.262   .     A
C47    O59     1.260   .     A
C47    C206    1.498   .     S
Y60    O70     2.234   .     S
Y60    O72     2.265   .     S
Y60    O73     2.244   .     S
Y60    O74     2.255   .     S
Y60    O75     2.251   .     S
Y60    O77     2.259   .     S
Y61    O68     2.257   .     S
Y61    O69     2.259   .     S
Y61    O71     2.278   .     S
Y61    O76     2.276   .     S
Y61    O78     2.251   .     S
Y61    O79     2.265   .     S
C62    O68     1.257   .     A
C62    O69     1.259   .     A
C62    C486    1.488   .     S
C63    O70     1.259   .     A
C63    O71     1.269   .     A
C63    C274    1.491   .     S
C64    O72     1.267   .     A
C64    O73     1.259   .     A
C64    C180    1.495   .     S
C65    O74     1.261   .     A
C65    O75     1.264   .     A
C65    C342    1.492   .     S
C66    O76     1.277   .     A
C66    O77     1.280   .     A
C66    C138    1.495   .     S
C67    O78     1.257   .     A
C67    O79     1.261   .     A
C67    C316    1.492   .     S
C80    C84     1.408   .     A
C80    C110    1.405   .     A
C80    C111    1.483   .     S
C81    H98     1.083   .     S
C81    C110    1.395   .     A
C81    C113    1.404   .     A
H82    C102    1.082   .     S
C83    C84     1.398   .     A
C83    C113    1.405   .     A
C83    H100    1.083   1_556 S
C84    H99     1.081   .     S
N85    H94     1.043   .     S
N85    C103    1.372   .     S
N85    C104    1.465   .     S
N86    H101    1.047   .     S
N86    C111    1.371   .     S
N86    C112    1.466   .     S
O87    C103    1.221   .     D
O88    C111    1.225   .     D
H89    C104    1.114   .     S
H90    C104    1.108   .     S
H91    C107    1.081   .     S
H92    C108    1.081   .     S
H93    C109    1.082   .     S
H95    C110    1.084   .     S
H96    C112    1.102   .     S
H97    C112    1.112   .     S
H100   C83     1.083   1_554 S
C102   C106    1.404   .     A
C102   C107    1.396   .     A
C103   C106    1.485   .     S
C105   C107    1.403   .     A
C105   C109    1.404   1_554 A
C105   C113    1.483   1_554 S
C106   C108    1.407   .     A
C108   C109    1.399   1_554 A
C109   C105    1.404   1_556 A
C109   C108    1.399   1_556 A
C113   C105    1.483   1_556 S
C114   C118    1.406   .     A
C114   C144    1.406   .     A
C114   C145    1.487   1_545 S
C115   H132    1.082   .     S
C115   C144    1.395   .     A
C115   C147    1.406   .     A
H116   C136    1.083   .     S
C117   C118    1.399   .     A
C117   H134    1.082   .     S
C117   C147    1.408   .     A
C118   H133    1.082   .     S
N119   H128    1.045   .     S
N119   C137    1.373   .     S
N119   C138    1.466   .     S
N120   H135    1.044   .     S
N120   C145    1.377   .     S
N120   C146    1.466   .     S
O121   C137    1.221   .     D
O122   C145    1.219   .     D
H123   C138    1.111   .     S
H124   C138    1.110   .     S
H125   C141    1.083   .     S
H126   C142    1.083   .     S
H127   C143    1.083   .     S
H129   C144    1.082   .     S
H130   C146    1.110   .     S
H131   C146    1.111   .     S
C136   C140    1.405   .     A
C136   C141    1.397   .     A
C137   C140    1.487   .     S
C139   C141    1.407   .     A
C139   C143    1.408   .     A
C139   C147    1.491   .     S
C140   C142    1.408   .     A
C142   C143    1.398   .     A
C145   C114    1.487   1_565 S
C148   C152    1.404   .     A
C148   C178    1.405   .     A
C148   C179    1.478   .     S
C149   H166    1.083   .     S
C149   C178    1.398   .     A
C149   C181    1.406   .     A
H150   C170    1.084   .     S
C151   C152    1.394   .     A
C151   H168    1.083   .     S
C151   C181    1.405   .     A
C152   H167    1.083   .     S
N153   H162    1.044   .     S
N153   C171    1.376   .     S
N153   C172    1.460   .     S
N154   H169    1.045   .     S
N154   C179    1.372   .     S
N154   C180    1.460   .     S
O155   C171    1.220   .     D
O156   C179    1.221   .     D
H157   C172    1.113   .     S
H158   C172    1.115   .     S
H159   C175    1.084   .     S
H160   C176    1.083   .     S
H161   C177    1.084   .     S
H163   C178    1.083   .     S
H164   C180    1.111   .     S
H165   C180    1.111   .     S
C170   C174    1.404   .     A
C170   C175    1.393   .     A
C171   C174    1.478   .     S
C173   C175    1.405   .     A
C173   C177    1.407   .     A
C173   C181    1.482   .     S
C174   C176    1.407   .     A
C176   C177    1.399   .     A
C182   C186    1.402   .     A
C182   C212    1.405   .     A
C182   C213    1.483   .     S
C183   H200    1.081   .     S
C183   C212    1.400   .     A
C183   C215    1.406   .     A
H184   C204    1.083   .     S
C185   C186    1.396   .     A
C185   H202    1.081   .     S
C185   C215    1.406   .     A
C186   H201    1.080   .     S
N187   H196    1.045   .     S
N187   C205    1.375   .     S
N187   C206    1.469   .     S
N188   H203    1.044   .     S
N188   C214    1.459   .     S
N188   C213    1.435   1_554 S
O189   C205    1.222   .     D
O190   C213    1.220   .     D
H191   C206    1.110   .     S
H192   C206    1.108   .     S
H193   C209    1.082   .     S
H194   C210    1.083   .     S
H195   C211    1.083   .     S
H197   C212    1.082   .     S
H198   C214    1.110   .     S
H199   C214    1.111   .     S
C204   C208    1.404   .     A
C204   C209    1.395   .     A
C205   C208    1.486   .     S
C207   C211    1.409   .     A
C207   C215    1.491   .     S
C207   C209    1.406   1_565 A
C208   C210    1.408   .     A
C209   C207    1.406   1_545 A
C210   C211    1.402   1_545 A
C211   C210    1.402   1_565 A
C213   N188    1.435   1_556 S
C216   C220    1.410   .     A
C216   C246    1.408   .     A
C216   C247    1.493   .     S
C217   C246    1.397   .     A
C217   C249    1.405   .     A
C217   H234    1.083   1_565 S
H218   C238    1.084   .     S
C219   C220    1.400   .     A
C219   H236    1.084   .     S
C219   C249    1.406   .     A
C220   H235    1.081   .     S
N221   H230    1.047   .     S
N221   C239    1.436   .     S
N221   C240    1.462   .     S
N222   H237    1.044   .     S
N222   C247    1.375   .     S
N222   C248    1.464   .     S
O223   C239    1.220   1_565 D
O224   C247    1.223   .     D
H225   C240    1.111   .     S
H226   C240    1.111   .     S
H227   C243    1.083   .     S
H228   C244    1.084   .     S
H229   C245    1.083   .     S
H231   C246    1.083   .     S
H232   C248    1.111   .     S
H233   C248    1.089   .     S
H234   C217    1.083   1_545 S
C238   C242    1.405   .     A
C238   C243    1.399   .     A
C239   O223    1.220   1_545 D
C239   C242    1.482   1_545 S
C241   C243    1.407   .     A
C241   C249    1.489   .     S
C241   C245    1.407   1_565 A
C242   C239    1.482   1_565 S
C242   C244    1.406   1_565 A
C244   C245    1.398   .     A
C244   C242    1.406   1_545 A
C245   C241    1.407   1_545 A
C250   C254    1.406   .     A
C250   C280    1.405   .     A
C250   C281    1.480   .     S
C251   H268    1.083   .     S
C251   C280    1.394   .     A
C251   C283    1.403   .     A
H252   C272    1.083   .     S
C253   C254    1.396   .     A
C253   H270    1.084   .     S
C253   C283    1.406   .     A
C254   H269    1.082   .     S
N255   H264    1.045   .     S
N255   C273    1.369   .     S
N255   C274    1.459   .     S
N256   H271    1.044   .     S
N256   C281    1.372   .     S
N256   C282    1.460   .     S
O257   C273    1.222   .     D
O258   C281    1.221   .     D
H259   C274    1.110   .     S
H260   C274    1.107   .     S
H261   C277    1.083   .     S
H262   C278    1.084   .     S
H263   C279    1.084   .     S
H265   C280    1.083   .     S
H266   C282    1.112   .     S
H267   C282    1.113   .     S
C272   C276    1.403   .     A
C272   C277    1.395   .     A
C273   C276    1.476   .     S
C275   C277    1.405   .     A
C275   C279    1.405   .     A
C275   C283    1.479   .     S
C276   C278    1.407   .     A
C278   C279    1.395   .     A
C284   C288    1.408   .     A
C284   C314    1.407   .     A
C284   C315    1.489   .     S
C285   H302    1.083   .     S
C285   C314    1.395   .     A
C285   C317    1.403   .     A
H286   C306    1.083   .     S
C287   C288    1.399   .     A
C287   H304    1.083   .     S
C287   C317    1.405   .     A
C288   H303    1.080   .     S
N289   H298    1.045   .     S
N289   C308    1.460   .     S
N289   C307    1.435   1_556 S
N290   H305    1.044   .     S
N290   C315    1.375   .     S
N290   C316    1.465   .     S
O291   C307    1.221   .     D
O292   C315    1.221   .     D
H293   C308    1.112   .     S
H294   C308    1.109   .     S
H295   C311    1.083   .     S
H296   C312    1.082   .     S
H297   C313    1.083   .     S
H299   C314    1.083   .     S
H300   C316    1.111   .     S
H301   C316    1.110   .     S
C306   C310    1.407   .     A
C306   C311    1.397   .     A
C307   C310    1.486   .     S
C307   N289    1.435   1_554 S
C309   C311    1.404   .     A
C309   C313    1.405   .     A
C309   C317    1.483   .     S
C310   C312    1.409   .     A
C312   C313    1.397   .     A
C318   C322    1.406   .     A
C318   C348    1.403   .     A
C318   C349    1.481   .     S
C319   H336    1.082   .     S
C319   C348    1.396   .     A
C319   C351    1.406   .     A
H320   C340    1.081   .     S
C321   C322    1.399   .     A
C321   H338    1.083   .     S
C321   C351    1.409   .     A
C322   H337    1.083   .     S
N323   H332    1.039   .     S
N323   C341    1.373   .     S
N323   C342    1.471   .     S
N324   H339    1.045   .     S
N324   C349    1.374   .     S
N324   C350    1.464   1_455 S
O325   C341    1.211   .     D
O326   C349    1.221   .     D
H327   C342    1.110   .     S
H328   C342    1.110   .     S
H329   C345    1.082   .     S
H330   C346    1.082   .     S
H331   C347    1.082   .     S
H333   C348    1.083   .     S
H334   C350    1.111   .     S
H335   C350    1.111   .     S
C340   C344    1.404   .     A
C340   C345    1.398   .     A
C341   C344    1.493   .     S
C343   C345    1.405   .     A
C343   C347    1.408   .     A
C343   C351    1.490   .     S
C344   C346    1.401   .     A
C346   C347    1.400   .     A
C350   N324    1.464   1_655 S
C352   C382    1.406   .     A
C352   C383    1.485   .     S
C352   C356    1.407   1_655 A
C353   H370    1.083   .     S
C353   C382    1.397   .     A
C353   C385    1.406   .     A
H354   C374    1.083   .     S
C355   C356    1.398   .     A
C355   H372    1.084   .     S
C355   C385    1.405   1_455 A
C356   H371    1.081   .     S
C356   C352    1.407   1_455 A
N357   C376    1.463   .     S
N357   H366    1.044   1_545 S
N357   C375    1.436   1_545 S
N358   H373    1.044   .     S
N358   C384    1.464   .     S
N358   C383    1.438   1_455 S
O359   C375    1.219   1_445 D
O360   C383    1.221   .     D
H361   C376    1.113   .     S
H362   C376    1.110   .     S
H363   C379    1.084   .     S
H364   C380    1.082   .     S
H365   C381    1.084   .     S
H366   N357    1.044   1_565 S
H367   C382    1.084   .     S
H368   C384    1.111   1_655 S
H369   C384    1.110   .     S
C374   C379    1.397   .     A
C374   C378    1.406   1_455 A
C375   C378    1.486   .     S
C375   N357    1.436   1_565 S
C375   O359    1.219   1_665 D
C377   C381    1.406   .     A
C377   C385    1.486   .     S
C377   C379    1.406   1_655 A
C378   C380    1.408   .     A
C378   C374    1.406   1_655 A
C379   C377    1.406   1_455 A
C380   C381    1.399   .     A
C383   N358    1.438   1_655 S
C384   H368    1.111   1_455 S
C385   C355    1.405   1_655 A
C386   C390    1.407   .     A
C386   C416    1.406   .     A
C386   C417    1.486   .     S
C387   H404    1.084   .     S
C387   C416    1.399   .     A
C387   C419    1.406   .     A
H388   C408    1.084   .     S
C389   H406    1.083   .     S
C389   C390    1.397   1_455 A
C389   C419    1.404   1_455 A
C390   H405    1.081   .     S
C390   C389    1.397   1_655 A
N391   H400    1.043   .     S
N391   C409    1.376   .     S
N391   C410    1.465   .     S
N392   H407    1.044   .     S
N392   C417    1.374   .     S
N392   C418    1.465   .     S
O393   C409    1.221   .     D
O394   C417    1.221   .     D
H395   C410    1.111   .     S
H396   C410    1.112   .     S
H397   C413    1.083   .     S
H398   C414    1.081   1_655 S
H399   C415    1.083   .     S
H401   C416    1.083   .     S
H402   C418    1.107   .     S
H403   C418    1.112   .     S
C408   C412    1.408   .     A
C408   C413    1.397   .     A
C409   C412    1.489   .     S
C411   C413    1.404   .     A
C411   C415    1.405   1_455 A
C411   C419    1.484   1_455 S
C412   C414    1.407   .     A
C414   H398    1.081   1_455 S
C414   C415    1.399   1_455 A
C415   C411    1.405   1_655 A
C415   C414    1.399   1_655 A
C419   C389    1.404   1_655 A
C419   C411    1.484   1_655 S
C420   C424    1.406   .     A
C420   C450    1.407   .     A
C420   C451    1.492   .     S
C421   H438    1.083   .     S
C421   C450    1.399   .     A
C421   C453    1.406   .     A
H422   C442    1.083   .     S
C423   C424    1.402   .     A
C423   C453    1.408   .     A
C423   H440    1.083   1_556 S
C424   H439    1.082   .     S
N425   H434    1.046   .     S
N425   C443    1.375   .     S
N425   C444    1.467   .     S
N426   C451    1.376   .     S
N426   H441    1.043   1_655 S
N426   C452    1.469   1_655 S
O427   C443    1.223   .     D
O428   C451    1.219   .     D
H429   C444    1.112   .     S
H430   C444    1.109   .     S
H431   C447    1.083   .     S
H432   C448    1.083   .     S
H433   C449    1.083   .     S
H435   C450    1.084   .     S
H436   C452    1.111   .     S
H437   C452    1.112   .     S
H440   C423    1.083   1_554 S
H441   N426    1.043   1_455 S
C442   C446    1.406   .     A
C442   C447    1.398   .     A
C443   C446    1.489   .     S
C445   C447    1.406   .     A
C445   C449    1.408   1_554 A
C445   C453    1.492   1_554 S
C446   C448    1.409   .     A
C448   C449    1.402   1_554 A
C449   C445    1.408   1_556 A
C449   C448    1.402   1_556 A
C452   N426    1.469   1_455 S
C453   C445    1.492   1_556 S
C454   C458    1.406   .     A
C454   C484    1.404   .     A
C454   C485    1.483   .     S
C455   H472    1.082   .     S
C455   C484    1.395   .     A
C455   C487    1.405   .     A
H456   C476    1.083   .     S
C457   C458    1.400   .     A
C457   H474    1.083   .     S
C457   C487    1.407   .     A
C458   H473    1.083   .     S
N459   H468    1.044   .     S
N459   C477    1.374   .     S
N459   C478    1.466   .     S
N460   H475    1.043   .     S
N460   C485    1.376   .     S
N460   C486    1.463   .     S
O461   C477    1.221   .     D
O462   C485    1.217   .     D
H463   C478    1.110   .     S
H464   C478    1.112   .     S
H465   C481    1.083   .     S
H466   C482    1.081   .     S
H467   C483    1.083   .     S
H469   C484    1.083   .     S
H470   C486    1.110   .     S
H471   C486    1.112   .     S
C476   C480    1.407   .     A
C476   C481    1.399   .     A
C477   C480    1.484   .     S
C479   C481    1.405   .     A
C479   C483    1.406   .     A
C479   C487    1.486   .     S
C480   C482    1.404   .     A
C482   C483    1.395   .     A
