data_lcy+N248+E229
_audit_creation_date              2025-01-21
_audit_creation_method            'Materials Studio'
_symmetry_space_group_name_H-M    'P1'
_symmetry_Int_Tables_number       1
_symmetry_cell_setting            triclinic
loop_
_symmetry_equiv_pos_as_xyz
  x,y,z
_cell_length_a                    38.2659
_cell_length_b                    37.0561
_cell_length_c                    37.4976
_cell_angle_alpha                 90.7166
_cell_angle_beta                  88.0830
_cell_angle_gamma                 91.3410
loop_
_atom_site_label
_atom_site_type_symbol
_atom_site_fract_x
_atom_site_fract_y
_atom_site_fract_z
_atom_site_U_iso_or_equiv
_atom_site_adp_type
_atom_site_occupancy
O0     O     0.14076   0.66412   0.91043   0.00000  Uiso   1.00
Yb1    Yb    0.13586   0.59382   0.85381   0.00000  Uiso   1.00
C2     C     0.16215   0.56630   0.79682   0.00000  Uiso   1.00
Yb3    Yb    0.10104   0.62280   0.91634   0.00000  Uiso   1.00
O4     O     0.16883   0.64195   0.85968   0.00000  Uiso   1.00
C5     C     0.07836   0.65958   0.86511   0.00000  Uiso   1.00
C6     C     0.16487   0.66588   0.88531   0.00000  Uiso   1.00
O7     O     0.06016   0.65664   0.93619   0.00000  Uiso   1.00
C8     C     0.06752   0.65117   0.96876   0.00000  Uiso   1.00
O9     O     0.17693   0.55949   0.86780   0.00000  Uiso   1.00
O10    O     0.14446   0.58639   0.91009   0.00000  Uiso   1.00
O11    O     0.09688   0.55140   0.86105   0.00000  Uiso   1.00
O12    O     0.09368   0.63103   0.97304   0.00000  Uiso   1.00
O13    O     0.06728   0.57606   0.91017   0.00000  Uiso   1.00
C14    C     0.17239   0.56390   0.90016   0.00000  Uiso   1.00
C15    C     0.07231   0.55084   0.88602   0.00000  Uiso   1.00
O16    O     0.17462   0.56006   0.82748   0.00000  Uiso   1.00
O17    O     0.13782   0.58921   0.79720   0.00000  Uiso   1.00
O18    O     0.06781   0.66500   0.89597   0.00000  Uiso   1.00
O19    O     0.09276   0.62610   0.86093   0.00000  Uiso   1.00
O20    O     0.65758   0.92006   0.08412   0.00000  Uiso   1.00
Yb21   Yb    0.58771   0.86208   0.11501   0.00000  Uiso   1.00
C22    C     0.56661   0.83574   0.05855   0.00000  Uiso   1.00
Yb23   Yb    0.65741   0.89317   0.13399   0.00000  Uiso   1.00
O24    O     0.60284   0.89671   0.06851   0.00000  Uiso   1.00
C25    C     0.61460   0.94272   0.15268   0.00000  Uiso   1.00
C26    C     0.63226   0.91550   0.06192   0.00000  Uiso   1.00
O27    O     0.71297   0.89158   0.14164   0.00000  Uiso   1.00
C28    C     0.71115   0.91691   0.16505   0.00000  Uiso   1.00
O29    O     0.64069   0.84367   0.10285   0.00000  Uiso   1.00
O30    O     0.64002   0.84747   0.10185   0.00000  Uiso   1.00
O31    O     0.59322   0.83841   0.16795   0.00000  Uiso   1.00
O32    O     0.68267   0.93427   0.16551   0.00000  Uiso   1.00
O33    O     0.64744   0.86152   0.18079   0.00000  Uiso   1.00
C34    C     0.64831   0.81254   0.10921   0.00000  Uiso   1.00
C35    C     0.62026   0.84112   0.18812   0.00000  Uiso   1.00
O36    O     0.56737   0.81795   0.08752   0.00000  Uiso   1.00
O37    O     0.57896   0.86901   0.05900   0.00000  Uiso   1.00
O38    O     0.64554   0.94491   0.16022   0.00000  Uiso   1.00
O39    O     0.60567   0.90982   0.13823   0.00000  Uiso   1.00
O40    O     0.92488   0.14798   0.66218   0.00000  Uiso   1.00
Yb41   Yb    0.84930   0.18073   0.62447   0.00000  Uiso   1.00
C42    C     0.79052   0.20332   0.62369   0.00000  Uiso   1.00
Yb43   Yb    0.88614   0.11081   0.64035   0.00000  Uiso   1.00
O44    O     0.89515   0.19823   0.65215   0.00000  Uiso   1.00
C45    C     0.84787   0.12926   0.69698   0.00000  Uiso   1.00
C46    C     0.92229   0.18248   0.66235   0.00000  Uiso   1.00
O47    O     0.88820   0.07361   0.68340   0.00000  Uiso   1.00
C48    C     0.91109   0.05405   0.66797   0.00000  Uiso   1.00
O49    O     0.87476   0.20795   0.58059   0.00000  Uiso   1.00
O50    O     0.88605   0.14975   0.59292   0.00000  Uiso   1.00
O51    O     0.86482   0.12811   0.59836   0.00000  Uiso   1.00
O52    O     0.92333   0.06658   0.63831   0.00000  Uiso   1.00
O53    O     0.84709   0.07580   0.61674   0.00000  Uiso   1.00
C54    C     0.89514   0.18294   0.57459   0.00000  Uiso   1.00
C55    C     0.84422   0.10016   0.59395   0.00000  Uiso   1.00
O56    O     0.79950   0.17592   0.60360   0.00000  Uiso   1.00
O57    O     0.81379   0.21802   0.64404   0.00000  Uiso   1.00
O58    O     0.86954   0.10557   0.69594   0.00000  Uiso   1.00
O59    O     0.83907   0.14016   0.66339   0.00000  Uiso   1.00
O60    O     0.38846   0.34500   0.40296   0.00000  Uiso   1.00
Yb61   Yb    0.38617   0.39851   0.33256   0.00000  Uiso   1.00
C62    C     0.42321   0.43700   0.28955   0.00000  Uiso   1.00
Yb63   Yb    0.33714   0.36574   0.38513   0.00000  Uiso   1.00
O64    O     0.42552   0.37575   0.36357   0.00000  Uiso   1.00
C65    C     0.35332   0.42300   0.41721   0.00000  Uiso   1.00
C66    C     0.41976   0.35286   0.38910   0.00000  Uiso   1.00
O67    O     0.35887   0.32777   0.42042   0.00000  Uiso   1.00
C68    C     0.32811   0.31231   0.42372   0.00000  Uiso   1.00
O69    O     0.40183   0.35094   0.30087   0.00000  Uiso   1.00
O70    O     0.35584   0.34748   0.33436   0.00000  Uiso   1.00
O71    O     0.33911   0.41554   0.30905   0.00000  Uiso   1.00
O72    O     0.30587   0.32267   0.40171   0.00000  Uiso   1.00
O73    O     0.30124   0.39537   0.35339   0.00000  Uiso   1.00
C74    C     0.38158   0.32989   0.31564   0.00000  Uiso   1.00
C75    C     0.30797   0.41091   0.32298   0.00000  Uiso   1.00
O76    O     0.41367   0.40482   0.28096   0.00000  Uiso   1.00
O77    O     0.41692   0.44601   0.32189   0.00000  Uiso   1.00
O78    O     0.33220   0.40160   0.43036   0.00000  Uiso   1.00
O79    O     0.36628   0.41269   0.38398   0.00000  Uiso   1.00
C80    C     0.50347   0.78054   0.00445   0.00000  Uiso   1.00
C81    C     0.52413   0.77325  -0.02635   0.00000  Uiso   1.00
C82    C     0.55884   0.78592  -0.02903   0.00000  Uiso   1.00
C83    C     0.57245   0.80834  -0.00230   0.00000  Uiso   1.00
C84    C     0.55150   0.81758   0.02757   0.00000  Uiso   1.00
C85    C     0.51760   0.80239   0.03145   0.00000  Uiso   1.00
C86    C     0.46819   0.76234   0.01055   0.00000  Uiso   1.00
H87    H     0.51417   0.75607  -0.04725   0.00000  Uiso   1.00
H88    H     0.57556   0.77757  -0.05131   0.00000  Uiso   1.00
H89    H     0.59972   0.81679  -0.00374   0.00000  Uiso   1.00
H90    H     0.50285   0.80628   0.05650   0.00000  Uiso   1.00
H91    H     0.47236   0.73298   0.01374   0.00000  Uiso   1.00
H92    H     0.45526   0.77279   0.03558   0.00000  Uiso   1.00
C93    C     0.24921   0.71919   0.89164   0.00000  Uiso   1.00
C94    C     0.22538   0.69097   0.88427   0.00000  Uiso   1.00
C95    C     0.28772   0.71281   0.88980   0.00000  Uiso   1.00
C96    C     0.33819   0.73224   0.92156   0.00000  Uiso   1.00
C97    C     0.35408   0.73645   0.95807   0.00000  Uiso   1.00
C98    C     0.23689   0.75369   0.90058   0.00000  Uiso   1.00
C99    C     0.20100   0.75976   0.90239   0.00000  Uiso   1.00
C100   C     0.18942   0.69671   0.88722   0.00000  Uiso   1.00
H101   H     0.25515   0.77578   0.90611   0.00000  Uiso   1.00
H102   H     0.19163   0.78645   0.90898   0.00000  Uiso   1.00
H103   H     0.14951   0.73620   0.89882   0.00000  Uiso   1.00
H104   H     0.23479   0.66424   0.87777   0.00000  Uiso   1.00
H105   H     0.29957   0.73173   0.86948   0.00000  Uiso   1.00
C106   C     0.41087   0.75255   0.98764   0.00000  Uiso   1.00
C107   C     0.39128   0.75162   0.95310   0.00000  Uiso   1.00
H108   H     0.35412   0.71305   0.90495   0.00000  Uiso   1.00
H109   H     0.33831   0.75531   0.97499   0.00000  Uiso   1.00
H110   H     0.35433   0.70968   0.97114   0.00000  Uiso   1.00
H111   H     0.33855   0.75919   0.90854   0.00000  Uiso   1.00
H112   H     0.29338   0.68474   0.88058   0.00000  Uiso   1.00
H113   H     0.39653   0.76945   0.00782   0.00000  Uiso   1.00
H114   H     0.41237   0.72439  -0.00236   0.00000  Uiso   1.00
N115   N     0.44584   0.76820   0.98037   0.00000  Uiso   1.00
N116   N     0.30209   0.71867   0.92527   0.00000  Uiso   1.00
C117   C     0.17728   0.73129   0.89624   0.00000  Uiso   1.00
C118   C     0.40333   0.23583   0.28358   0.00000  Uiso   1.00
C119   C     0.38821   0.21541   0.31167   0.00000  Uiso   1.00
C120   C     0.37046   0.23253   0.34000   0.00000  Uiso   1.00
C121   C     0.36763   0.26991   0.34037   0.00000  Uiso   1.00
C122   C     0.38339   0.29062   0.31303   0.00000  Uiso   1.00
C123   C     0.40131   0.27357   0.28460   0.00000  Uiso   1.00
C124   C     0.42014   0.21703   0.25219   0.00000  Uiso   1.00
H125   H     0.38991   0.18620   0.31143   0.00000  Uiso   1.00
H126   H     0.35840   0.21670   0.36142   0.00000  Uiso   1.00
H127   H     0.35375   0.28262   0.36243   0.00000  Uiso   1.00
H128   H     0.41320   0.28947   0.26316   0.00000  Uiso   1.00
H129   H     0.39988   0.19924   0.23983   0.00000  Uiso   1.00
H130   H     0.42999   0.23656   0.23174   0.00000  Uiso   1.00
C131   C     0.57319   0.03226   0.17306   0.00000  Uiso   1.00
C132   C     0.59163   1.00043   0.17769   0.00000  Uiso   1.00
C133   C     0.57250   0.06160   0.20081   0.00000  Uiso   1.00
C134   C     0.53242   0.10112   0.23270   0.00000  Uiso   1.00
C135   C     0.49547   0.11413   0.22863   0.00000  Uiso   1.00
C136   C     0.55384   0.03664   0.14212   0.00000  Uiso   1.00
C137   C     0.55215   0.00903   0.11661   0.00000  Uiso   1.00
C138   C     0.59094   0.97332   0.15163   0.00000  Uiso   1.00
H139   H     0.54026   0.06144   0.13730   0.00000  Uiso   1.00
H140   H     0.53746   0.01255   0.09241   0.00000  Uiso   1.00
H141   H     0.56805   0.95578   0.10142   0.00000  Uiso   1.00
H142   H     0.60665   0.99732   0.20104   0.00000  Uiso   1.00
H143   H     0.58497   0.08618   0.18852   0.00000  Uiso   1.00
C144   C     0.45640   0.16629   0.23999   0.00000  Uiso   1.00
C145   C     0.48983   0.14838   0.25045   0.00000  Uiso   1.00
H146   H     0.53729   0.09563   0.26124   0.00000  Uiso   1.00
H147   H     0.49159   0.11955   0.19993   0.00000  Uiso   1.00
H148   H     0.47621   0.09300   0.23772   0.00000  Uiso   1.00
H149   H     0.55113   0.12273   0.22295   0.00000  Uiso   1.00
H150   H     0.58774   0.05427   0.22421   0.00000  Uiso   1.00
H151   H     0.45985   0.17607   0.21201   0.00000  Uiso   1.00
H152   H     0.43411   0.14631   0.24175   0.00000  Uiso   1.00
N153   N     0.44948   0.19644   0.26437   0.00000  Uiso   1.00
N154   N     0.53602   0.06771   0.21192   0.00000  Uiso   1.00
C155   C     0.56965   0.97688   0.12186   0.00000  Uiso   1.00
C156   C     0.70837   0.24644   0.59335   0.00000  Uiso   1.00
C157   C     0.68766   0.24545   0.62505   0.00000  Uiso   1.00
C158   C     0.70073   0.23123   0.65606   0.00000  Uiso   1.00
C159   C     0.73461   0.21788   0.65557   0.00000  Uiso   1.00
C160   C     0.75502   0.21728   0.62376   0.00000  Uiso   1.00
C161   C     0.74200   0.23176   0.59260   0.00000  Uiso   1.00
C162   C     0.69542   0.26598   0.56172   0.00000  Uiso   1.00
H163   H     0.66142   0.25584   0.62569   0.00000  Uiso   1.00
H164   H     0.68470   0.23096   0.68053   0.00000  Uiso   1.00
H165   H     0.74489   0.20773   0.67986   0.00000  Uiso   1.00
H166   H     0.75855   0.23327   0.56845   0.00000  Uiso   1.00
H167   H     0.69608   0.29544   0.56874   0.00000  Uiso   1.00
H168   H     0.71271   0.26161   0.53758   0.00000  Uiso   1.00
C169   C     0.48425   0.30141   0.44410   0.00000  Uiso   1.00
C170   C     0.45401   0.32013   0.43525   0.00000  Uiso   1.00
C171   C     0.48879   0.28761   0.48122   0.00000  Uiso   1.00
C172   C     0.54705   0.27608   0.50168   0.00000  Uiso   1.00
C173   C     0.58093   0.29424   0.51377   0.00000  Uiso   1.00
C174   C     0.51037   0.29494   0.41763   0.00000  Uiso   1.00
C175   C     0.50709   0.30774   0.38322   0.00000  Uiso   1.00
C176   C     0.45074   0.33323   0.40044   0.00000  Uiso   1.00
H177   H     0.53340   0.27994   0.42340   0.00000  Uiso   1.00
H178   H     0.52715   0.30241   0.36281   0.00000  Uiso   1.00
H179   H     0.47567   0.33610   0.34770   0.00000  Uiso   1.00
H180   H     0.43345   0.32454   0.45534   0.00000  Uiso   1.00
H181   H     0.48881   0.25747   0.48027   0.00000  Uiso   1.00
C182   C     0.64130   0.28086   0.53551   0.00000  Uiso   1.00
C183   C     0.60547   0.26546   0.52629   0.00000  Uiso   1.00
H184   H     0.53693   0.25677   0.52231   0.00000  Uiso   1.00
H185   H     0.59347   0.30937   0.49107   0.00000  Uiso   1.00
H186   H     0.57512   0.31348   0.53612   0.00000  Uiso   1.00
H187   H     0.55287   0.26076   0.47654   0.00000  Uiso   1.00
H188   H     0.46634   0.29526   0.49906   0.00000  Uiso   1.00
H189   H     0.65601   0.28851   0.51041   0.00000  Uiso   1.00
H190   H     0.63814   0.30523   0.55315   0.00000  Uiso   1.00
N191   N     0.65991   0.25312   0.55411   0.00000  Uiso   1.00
N192   N     0.52087   0.30351   0.49592   0.00000  Uiso   1.00
C193   C     0.47772   0.32691   0.37478   0.00000  Uiso   1.00
C194   C     0.78932   0.12833   0.77870   0.00000  Uiso   1.00
C195   C     0.80707   0.15335   0.80027   0.00000  Uiso   1.00
C196   C     0.83767   0.17067   0.78764   0.00000  Uiso   1.00
C197   C     0.85022   0.16393   0.75299   0.00000  Uiso   1.00
C198   C     0.83148   0.14067   0.73056   0.00000  Uiso   1.00
C199   C     0.80147   0.12229   0.74359   0.00000  Uiso   1.00
C200   C     0.75904   0.10689   0.79418   0.00000  Uiso   1.00
H201   H     0.79779   0.15843   0.82731   0.00000  Uiso   1.00
H202   H     0.85218   0.18835   0.80517   0.00000  Uiso   1.00
H203   H     0.87486   0.17619   0.74387   0.00000  Uiso   1.00
H204   H     0.78860   0.10245   0.72680   0.00000  Uiso   1.00
H205   H     0.74036   0.12639   0.80677   0.00000  Uiso   1.00
H206   H     0.74535   0.09119   0.77303   0.00000  Uiso   1.00
C207   C     0.67577   0.94732   0.97518   0.00000  Uiso   1.00
C208   C     0.67115   0.93878   0.01153   0.00000  Uiso   1.00
C209   C     0.71122   0.95527   0.95853   0.00000  Uiso   1.00
C210   C     0.73638   0.99819   0.91633   0.00000  Uiso   1.00
C211   C     0.73199   0.03602   0.90195   0.00000  Uiso   1.00
C212   C     0.64663   0.94870   0.95355   0.00000  Uiso   1.00
C213   C     0.61321   0.94201   0.96804   0.00000  Uiso   1.00
C214   C     0.63734   0.93080   0.02595   0.00000  Uiso   1.00
H215   H     0.65008   0.95525   0.92542   0.00000  Uiso   1.00
H216   H     0.59090   0.94317   0.95123   0.00000  Uiso   1.00
H217   H     0.58239   0.92626   0.01360   0.00000  Uiso   1.00
H218   H     0.69387   0.93728   0.02796   0.00000  Uiso   1.00
H219   H     0.71506   0.93580   0.93583   0.00000  Uiso   1.00
C220   C     0.74471   0.07312   0.84693   0.00000  Uiso   1.00
C221   C     0.75618   0.04179   0.86925   0.00000  Uiso   1.00
H222   H     0.76346   0.99520   0.92558   0.00000  Uiso   1.00
H223   H     0.70416   0.03938   0.89497   0.00000  Uiso   1.00
H224   H     0.73868   0.05629   0.92290   0.00000  Uiso   1.00
H225   H     0.73114   0.97822   0.89454   0.00000  Uiso   1.00
H226   H     0.73271   0.95180   0.97748   0.00000  Uiso   1.00
H227   H     0.72004   0.06515   0.83363   0.00000  Uiso   1.00
H228   H     0.74018   0.09731   0.86425   0.00000  Uiso   1.00
N229   N     0.77208   0.08169   0.82019   0.00000  Uiso   1.00
N230   N     0.71165   0.99264   0.94635   0.00000  Uiso   1.00
C231   C     0.60860   0.93272   0.00377   0.00000  Uiso   1.00
C232   C     0.81331   0.05548   0.50854   0.00000  Uiso   1.00
C233   C     0.80858   0.08591   0.48742   0.00000  Uiso   1.00
C234   C     0.81089   0.12042   0.50256   0.00000  Uiso   1.00
C235   C     0.82052   0.12503   0.53801   0.00000  Uiso   1.00
C236   C     0.82687   0.09495   0.55935   0.00000  Uiso   1.00
C237   C     0.82168   0.06028   0.54468   0.00000  Uiso   1.00
C238   C     0.81319   0.01827   0.49181   0.00000  Uiso   1.00
H239   H     0.80351   0.08335   0.45911   0.00000  Uiso   1.00
H240   H     0.80604   0.14384   0.48646   0.00000  Uiso   1.00
H241   H     0.82401   0.15237   0.54801   0.00000  Uiso   1.00
H242   H     0.82643   0.03703   0.56048   0.00000  Uiso   1.00
H243   H     0.83930   0.01410   0.47850   0.00000  Uiso   1.00
H244   H     0.81040  -0.00230   0.51297   0.00000  Uiso   1.00
C245   C     0.74223   0.94616   0.25472   0.00000  Uiso   1.00
C246   C     0.73052   0.94890   0.21975   0.00000  Uiso   1.00
C247   C     0.73082   0.97304   0.28308   0.00000  Uiso   1.00
C248   C     0.74748  -0.00854   0.34247   0.00000  Uiso   1.00
C249   C     0.77856  -0.00122   0.36634   0.00000  Uiso   1.00
C250   C     0.76022   0.91520   0.26412   0.00000  Uiso   1.00
C251   C     0.76760   0.88824   0.23864   0.00000  Uiso   1.00
C252   C     0.73513   0.92050   0.19488   0.00000  Uiso   1.00
H253   H     0.76738   0.91092   0.29159   0.00000  Uiso   1.00
H254   H     0.78168   0.86435   0.24640   0.00000  Uiso   1.00
H255   H     0.75719   0.86744   0.18660   0.00000  Uiso   1.00
H256   H     0.71508   0.97168   0.21298   0.00000  Uiso   1.00
H257   H     0.70868   0.95998   0.29866   0.00000  Uiso   1.00
C258   C     0.79705   0.00844   0.43026   0.00000  Uiso   1.00
C259   C     0.76628   0.00498   0.40527   0.00000  Uiso   1.00
H260   H     0.73009   0.01530   0.34294   0.00000  Uiso   1.00
H261   H     0.79573   0.97503   0.36470   0.00000  Uiso   1.00
H262   H     0.79370   0.02283   0.35658   0.00000  Uiso   1.00
H263   H     0.73238   0.96760   0.35317   0.00000  Uiso   1.00
H264   H     0.72047   0.99738   0.27056   0.00000  Uiso   1.00
H265   H     0.81280  -0.01650   0.42775   0.00000  Uiso   1.00
H266   H     0.81376   0.03225   0.42225   0.00000  Uiso   1.00
N267   N     0.78405   0.01304   0.46734   0.00000  Uiso   1.00
N268   N     0.76012   0.98364   0.30577   0.00000  Uiso   1.00
C269   C     0.75451   0.89054   0.20437   0.00000  Uiso   1.00
C270   C     0.35856   0.49897   0.48409   0.00000  Uiso   1.00
C271   C     0.39177   0.51394   0.47577   0.00000  Uiso   1.00
C272   C     0.41131   0.50072   0.44648   0.00000  Uiso   1.00
C273   C     0.39829   0.47167   0.42635   0.00000  Uiso   1.00
C274   C     0.36609   0.45496   0.43632   0.00000  Uiso   1.00
C275   C     0.34651   0.46869   0.46528   0.00000  Uiso   1.00
C276   C     0.33490   0.51730   0.51073   0.00000  Uiso   1.00
H277   H     0.40239   0.53609   0.49186   0.00000  Uiso   1.00
H278   H     0.43654   0.51322   0.43968   0.00000  Uiso   1.00
H279   H     0.41363   0.46236   0.40332   0.00000  Uiso   1.00
H280   H     0.32127   0.45686   0.47216   0.00000  Uiso   1.00
H281   H     0.34691   0.54356   0.51982   0.00000  Uiso   1.00
H282   H     0.30987   0.52309   0.49772   0.00000  Uiso   1.00
C283   C     0.21387   0.51032   0.72881   0.00000  Uiso   1.00
C284   C     0.20550   0.53092   0.75959   0.00000  Uiso   1.00
C285   C     0.24976   0.49526   0.72293   0.00000  Uiso   1.00
C286   C     0.27617   0.48956   0.66320   0.00000  Uiso   1.00
C287   C     0.28261   0.51217   0.63008   0.00000  Uiso   1.00
C288   C     0.18876   0.50497   0.70266   0.00000  Uiso   1.00
C289   C     0.15623   0.52100   0.70656   0.00000  Uiso   1.00
C290   C     0.17254   0.54659   0.76386   0.00000  Uiso   1.00
H291   H     0.19442   0.48856   0.67913   0.00000  Uiso   1.00
H292   H     0.13715   0.51701   0.68613   0.00000  Uiso   1.00
H293   H     0.12250   0.55351   0.73952   0.00000  Uiso   1.00
H294   H     0.22473   0.53525   0.77980   0.00000  Uiso   1.00
H295   H     0.24773   0.46540   0.71900   0.00000  Uiso   1.00
C296   C     0.30395   0.51211   0.56658   0.00000  Uiso   1.00
C297   C     0.29991   0.48998   0.60037   0.00000  Uiso   1.00
H298   H     0.30014   0.47468   0.66946   0.00000  Uiso   1.00
H299   H     0.25723   0.52229   0.62111   0.00000  Uiso   1.00
H300   H     0.30002   0.53569   0.63644   0.00000  Uiso   1.00
H301   H     0.25452   0.46972   0.65788   0.00000  Uiso   1.00
H302   H     0.26568   0.50018   0.74678   0.00000  Uiso   1.00
H303   H     0.27785   0.51444   0.55455   0.00000  Uiso   1.00
H304   H     0.31436   0.53967   0.57332   0.00000  Uiso   1.00
N305   N     0.32804   0.49413   0.54150   0.00000  Uiso   1.00
N306   N     0.26719   0.51398   0.69290   0.00000  Uiso   1.00
C307   C     0.14821   0.54192   0.73682   0.00000  Uiso   1.00
C308   C     0.21636   0.54257   0.98617   0.00000  Uiso   1.00
C309   C     0.24445   0.52186   0.97325   0.00000  Uiso   1.00
C310   C     0.24836   0.51420   0.93686   0.00000  Uiso   1.00
C311   C     0.22411   0.52677   0.91318   0.00000  Uiso   1.00
C312   C     0.19591   0.54780   0.92571   0.00000  Uiso   1.00
C313   C     0.19225   0.55559   0.96231   0.00000  Uiso   1.00
C314   C     0.21288   0.55135   0.02518   0.00000  Uiso   1.00
H315   H     0.26310   0.51140   0.99146   0.00000  Uiso   1.00
H316   H     0.27051   0.49887   0.92700   0.00000  Uiso   1.00
H317   H     0.22805   0.52080   0.88496   0.00000  Uiso   1.00
H318   H     0.17134   0.57262   0.97209   0.00000  Uiso   1.00
H319   H     0.23597   0.56863   0.03234   0.00000  Uiso   1.00
H320   H     0.18889   0.56696   0.03142   0.00000  Uiso   1.00
C321   C     0.25173   0.42550   0.24417   0.00000  Uiso   1.00
C322   C     0.28045   0.41766   0.26472   0.00000  Uiso   1.00
C323   C     0.25308   0.41895   0.20456   0.00000  Uiso   1.00
C324   C     0.24301   0.44925   0.14954   0.00000  Uiso   1.00
C325   C     0.24653   0.48565   0.13127   0.00000  Uiso   1.00
C326   C     0.22139   0.43918   0.26102   0.00000  Uiso   1.00
C327   C     0.21935   0.44333   0.29815   0.00000  Uiso   1.00
C328   C     0.27857   0.42220   0.30198   0.00000  Uiso   1.00
H329   H     0.19903   0.44584   0.24547   0.00000  Uiso   1.00
H330   H     0.19568   0.45337   0.31102   0.00000  Uiso   1.00
H331   H     0.24534   0.43684   0.34736   0.00000  Uiso   1.00
H332   H     0.30391   0.40721   0.25170   0.00000  Uiso   1.00
H333   H     0.22998   0.40180   0.19744   0.00000  Uiso   1.00
C334   C     0.23059   0.52032   0.07738   0.00000  Uiso   1.00
C335   C     0.22850   0.48403   0.09573   0.00000  Uiso   1.00
H336   H     0.26002   0.42948   0.13507   0.00000  Uiso   1.00
H337   H     0.23406   0.50661   0.14861   0.00000  Uiso   1.00
H338   H     0.27473   0.49288   0.12694   0.00000  Uiso   1.00
H339   H     0.21530   0.43939   0.14905   0.00000  Uiso   1.00
H340   H     0.27701   0.40418   0.19619   0.00000  Uiso   1.00
H341   H     0.21937   0.54155   0.09539   0.00000  Uiso   1.00
H342   H     0.25857   0.52707   0.07061   0.00000  Uiso   1.00
N343   N     0.21061   0.51756   0.04501   0.00000  Uiso   1.00
N344   N     0.25337   0.45369   0.18652   0.00000  Uiso   1.00
C345   C     0.24760   0.43423   0.31864   0.00000  Uiso   1.00
C346   C     0.26439   0.27208   0.49091   0.00000  Uiso   1.00
C347   C     0.28642   0.26509   0.51914   0.00000  Uiso   1.00
C348   C     0.32291   0.26887   0.51427   0.00000  Uiso   1.00
C349   C     0.33776   0.28129   0.48190   0.00000  Uiso   1.00
C350   C     0.31612   0.28883   0.45363   0.00000  Uiso   1.00
C351   C     0.27978   0.28191   0.45786   0.00000  Uiso   1.00
C352   C     0.22547   0.27793   0.49750   0.00000  Uiso   1.00
H353   H     0.27531   0.25880   0.54544   0.00000  Uiso   1.00
H354   H     0.33945   0.26474   0.53658   0.00000  Uiso   1.00
H355   H     0.36559   0.28698   0.47983   0.00000  Uiso   1.00
H356   H     0.26271   0.28854   0.43662   0.00000  Uiso   1.00
H357   H     0.22245   0.29909   0.51872   0.00000  Uiso   1.00
H358   H     0.21414   0.28897   0.47295   0.00000  Uiso   1.00
C359   C     0.98596   0.18250   0.53093   0.00000  Uiso   1.00
C360   C     0.95852   0.17911   0.55678   0.00000  Uiso   1.00
C361   C     0.02322   0.17476   0.53977   0.00000  Uiso   1.00
C362   C     0.08328   0.19689   0.53390   0.00000  Uiso   1.00
C363   C     0.10664   0.22905   0.52209   0.00000  Uiso   1.00
C364   C     0.97805   0.19161   0.49596   0.00000  Uiso   1.00
C365   C     0.94367   0.19795   0.48702   0.00000  Uiso   1.00
C366   C     0.92391   0.18594   0.54775   0.00000  Uiso   1.00
H367   H     0.99861   0.19435   0.47571   0.00000  Uiso   1.00
H368   H     0.93789   0.20465   0.46001   0.00000  Uiso   1.00
H369   H     0.89007   0.20119   0.50576   0.00000  Uiso   1.00
H370   H     0.96404   0.17195   0.58395   0.00000  Uiso   1.00
H371   H     0.03092   0.14971   0.52495   0.00000  Uiso   1.00
C372   C     0.16824   0.25320   0.51045   0.00000  Uiso   1.00
C373   C     0.14593   0.22089   0.52370   0.00000  Uiso   1.00
H374   H     0.08764   0.19132   0.56256   0.00000  Uiso   1.00
H375   H     0.10052   0.23584   0.49415   0.00000  Uiso   1.00
H376   H     0.10039   0.25280   0.53948   0.00000  Uiso   1.00
H377   H     0.09060   0.17271   0.51752   0.00000  Uiso   1.00
H378   H     0.02527   0.16985   0.56894   0.00000  Uiso   1.00
H379   H     0.15939   0.26042   0.48351   0.00000  Uiso   1.00
H380   H     0.16359   0.27634   0.52916   0.00000  Uiso   1.00
N381   N     0.20578   0.24501   0.50826   0.00000  Uiso   1.00
N382   N     0.04634   0.20526   0.52907   0.00000  Uiso   1.00
C383   C     0.91670   0.19566   0.51285   0.00000  Uiso   1.00
C384   C     0.95663   0.96678   0.68719   0.00000  Uiso   1.00
C385   C     0.92996   0.94895   0.70732   0.00000  Uiso   1.00
C386   C     0.89866   0.96594   0.71579   0.00000  Uiso   1.00
C387   C     0.89361   0.00092   0.70430   0.00000  Uiso   1.00
C388   C     0.91934   0.01877   0.68289   0.00000  Uiso   1.00
C389   C     0.95095   1.00173   0.67470   0.00000  Uiso   1.00
C390   C     0.98993   0.94774   0.67716   0.00000  Uiso   1.00
H391   H     0.93312   0.92181   0.71631   0.00000  Uiso   1.00
H392   H     0.87802   0.95170   0.73071   0.00000  Uiso   1.00
H393   H     0.86881   0.01339   0.71067   0.00000  Uiso   1.00
H394   H     0.97064   1.01534   0.65806   0.00000  Uiso   1.00
H395   H     0.98367   0.92554   0.65787   0.00000  Uiso   1.00
H396   H     1.00870   0.96643   0.66301   0.00000  Uiso   1.00
C397   C     0.06495   0.74692   0.81665   0.00000  Uiso   1.00
C398   C     0.05962   0.71850   0.84093   0.00000  Uiso   1.00
C399   C     0.04633   0.78192   0.82195   0.00000  Uiso   1.00
C400   C     0.02629   0.83170   0.78749   0.00000  Uiso   1.00
C401   C     0.01714   0.84252   0.74987   0.00000  Uiso   1.00
C402   C     0.08988   0.74347   0.78844   0.00000  Uiso   1.00
C403   C     0.10789   0.71143   0.78339   0.00000  Uiso   1.00
C404   C     0.07843   0.68657   0.83655   0.00000  Uiso   1.00
H405   H     0.09542   0.76562   0.77027   0.00000  Uiso   1.00
H406   H     0.12728   0.70912   0.76165   0.00000  Uiso   1.00
H407   H     0.11705   0.65881   0.80321   0.00000  Uiso   1.00
H408   H     0.04190   0.72175   0.86380   0.00000  Uiso   1.00
H409   H     0.06587   0.80225   0.83167   0.00000  Uiso   1.00
C410   C     1.00521   0.89536   0.71065   0.00000  Uiso   1.00
C411   C     1.01563   0.88359   0.74745   0.00000  Uiso   1.00
H412   H     0.00459   0.83894   0.80669   0.00000  Uiso   1.00
H413   H     0.03754   0.83254   0.73056   0.00000  Uiso   1.00
H414   H    -0.00853   0.82991   0.74311   0.00000  Uiso   1.00
H415   H     0.05062   0.84687   0.79489   0.00000  Uiso   1.00
H416   H     0.02487   0.77921   0.84254   0.00000  Uiso   1.00
H417   H     0.02358   0.88426   0.68983   0.00000  Uiso   1.00
H418   H     0.97830   0.88467   0.70594   0.00000  Uiso   1.00
N419   N     1.00638   0.93485   0.70933   0.00000  Uiso   1.00
N420   N     0.03173   0.79269   0.78810   0.00000  Uiso   1.00
C421   C     0.10188   0.68293   0.80705   0.00000  Uiso   1.00
C422   C     0.01201   0.47370   0.86079   0.00000  Uiso   1.00
C423   C     0.01141   0.45382   0.89254   0.00000  Uiso   1.00
C424   C     0.02999   0.46639   0.92187   0.00000  Uiso   1.00
C425   C     0.04883   0.49896   0.91990   0.00000  Uiso   1.00
C426   C     0.04999   0.51860   0.88826   0.00000  Uiso   1.00
C427   C     0.03206   0.50578   0.85853   0.00000  Uiso   1.00
C428   C     0.99262   0.45992   0.82914   0.00000  Uiso   1.00
H429   H    -0.00304   0.42842   0.89448   0.00000  Uiso   1.00
H430   H     0.03018   0.45079   0.94607   0.00000  Uiso   1.00
H431   H     0.06362   0.50830   0.94254   0.00000  Uiso   1.00
H432   H     0.03385   0.52058   0.83374   0.00000  Uiso   1.00
H433   H     0.96496   0.45362   0.83786   0.00000  Uiso   1.00
H434   H     0.99172   0.48104   0.80836   0.00000  Uiso   1.00
C435   C     0.99241   0.23443   0.71255   0.00000  Uiso   1.00
C436   C     0.96464   0.20993   0.70534   0.00000  Uiso   1.00
C437   C     1.00343   0.24025   0.75038   0.00000  Uiso   1.00
C438   C     1.00642   0.30267   0.77100   0.00000  Uiso   1.00
C439   C     0.98428   0.33409   0.78478   0.00000  Uiso   1.00
C440   C     1.00854   0.25448   0.68445   0.00000  Uiso   1.00
C441   C     0.99591   0.25133   0.65014   0.00000  Uiso   1.00
C442   C     0.95255   0.20618   0.67065   0.00000  Uiso   1.00
H443   H     1.03057   0.27265   0.68868   0.00000  Uiso   1.00
H444   H     1.00770   0.26732   0.62868   0.00000  Uiso   1.00
H445   H     0.95705   0.22710   0.61705   0.00000  Uiso   1.00
H446   H     0.95164   0.19496   0.72680   0.00000  Uiso   1.00
H447   H     1.03249   0.24397   0.75116   0.00000  Uiso   1.00
C448   C     0.98671   0.39935   0.80505   0.00000  Uiso   1.00
C449   C     1.00779   0.36683   0.79291   0.00000  Uiso   1.00
H450   H     1.02707   0.29736   0.79056   0.00000  Uiso   1.00
H451   H     0.96539   0.34137   0.76422   0.00000  Uiso   1.00
H452   H     0.96930   0.32596   0.80950   0.00000  Uiso   1.00
H453   H     0.01923   0.31024   0.74488   0.00000  Uiso   1.00
H454   H     0.99705   0.21568   0.76622   0.00000  Uiso   1.00
H455   H     0.96992   0.40776   0.78307   0.00000  Uiso   1.00
H456   H     0.97016   0.39191   0.82897   0.00000  Uiso   1.00
N457   N     0.01102   0.42872   0.81403   0.00000  Uiso   1.00
N458   N     0.98401   0.27035   0.76664   0.00000  Uiso   1.00
C459   C     0.96759   0.22797   0.64349   0.00000  Uiso   1.00
C460   C     0.73179   0.79763   0.05584   0.00000  Uiso   1.00
C461   C     0.71905   0.77381   1.02935   0.00000  Uiso   1.00
C462   C     0.68509   0.75909   0.03277   0.00000  Uiso   1.00
C463   C     0.66325   0.76959   0.06152   0.00000  Uiso   1.00
C464   C     0.67506   0.79485   0.08686   0.00000  Uiso   1.00
C465   C     0.70934   0.80854   0.08421   0.00000  Uiso   1.00
C466   C     0.76957   0.81011   0.05340   0.00000  Uiso   1.00
H467   H     0.73603   0.76545   1.00670   0.00000  Uiso   1.00
H468   H     0.67564   0.74020   1.01238   0.00000  Uiso   1.00
H469   H     0.63640   0.75937   0.06224   0.00000  Uiso   1.00
H470   H     0.71801   0.82823   0.10329   0.00000  Uiso   1.00
H471   H     0.77395   0.82571   1.02820   0.00000  Uiso   1.00
H472   H     0.77596   0.82832   0.07623   0.00000  Uiso   1.00
C473   C     0.98769   0.68021   0.02236   0.00000  Uiso   1.00
C474   C     1.00954   0.66597   0.99520   0.00000  Uiso   1.00
C475   C     0.94861   0.67684   0.01969   0.00000  Uiso   1.00
C476   C     0.89564   0.71032   0.02256   0.00000  Uiso   1.00
C477   C     0.87915   0.74692   0.01675   0.00000  Uiso   1.00
C478   C     0.00263   0.69560   0.05288   0.00000  Uiso   1.00
C479   C     0.03886   0.69515   0.05679   0.00000  Uiso   1.00
C480   C     0.04591   0.66595   0.99858   0.00000  Uiso   1.00
H481   H    -0.01384   0.70728   0.07388   0.00000  Uiso   1.00
H482   H     0.05004   0.70661   0.08071   0.00000  Uiso   1.00
H483   H     0.08839   0.67914   1.03384   0.00000  Uiso   1.00
H484   H     0.99817   0.65387   0.97170   0.00000  Uiso   1.00
H485   H     0.93795   0.66339   0.04438   0.00000  Uiso   1.00
C486   C     0.82339   0.78179   0.03155   0.00000  Uiso   1.00
C487   C     0.84109   0.74535   0.03064   0.00000  Uiso   1.00
H488   H     0.88328   0.68964   0.00473   0.00000  Uiso   1.00
H489   H     0.89391   0.76809   0.03170   0.00000  Uiso   1.00
H490   H     0.88044   0.75344   0.98781   0.00000  Uiso   1.00
H491   H     0.89044   0.70230   0.05087   0.00000  Uiso   1.00
H492   H     0.94164   0.65920  -0.00349   0.00000  Uiso   1.00
H493   H     0.84108   0.80302   0.04277   0.00000  Uiso   1.00
H494   H     0.81684   0.78875   1.00375   0.00000  Uiso   1.00
N495   N     0.79163   0.77821   0.05425   0.00000  Uiso   1.00
N496   N     0.93356   0.71254   0.01539   0.00000  Uiso   1.00
C497   C     0.06048   0.67969   1.03008   0.00000  Uiso   1.00
C498   C     0.59541   0.77065   0.25775   0.00000  Uiso   1.00
C499   C     0.62791   0.76649   0.27338   0.00000  Uiso   1.00
C500   C     0.65665   0.78840   0.26334   0.00000  Uiso   1.00
C501   C     0.65353   0.81377   0.23659   0.00000  Uiso   1.00
C502   C     0.62149   0.81785   0.21982   0.00000  Uiso   1.00
C503   C     0.59203   0.79710   0.23153   0.00000  Uiso   1.00
C504   C     0.56540   0.74544   0.26782   0.00000  Uiso   1.00
H505   H     0.63129   0.74593   0.29315   0.00000  Uiso   1.00
H506   H     0.68168   0.78511   0.27568   0.00000  Uiso   1.00
H507   H     0.67648   0.82956   0.22834   0.00000  Uiso   1.00
H508   H     0.56686   0.80081   0.21969   0.00000  Uiso   1.00
H509   H     0.56352   0.74330   0.29747   0.00000  Uiso   1.00
H510   H     0.54043   0.75645   0.25891   0.00000  Uiso   1.00
C511   C     0.48164   0.50584   0.24237   0.00000  Uiso   1.00
C512   C     0.47092   0.47349   0.25937   0.00000  Uiso   1.00
C513   C     0.51982   0.51650   0.23831   0.00000  Uiso   1.00
C514   C     0.53734   0.58041   0.23970   0.00000  Uiso   1.00
C515   C     0.53688   0.61397   0.26408   0.00000  Uiso   1.00
C516   C     0.45621   0.52898   0.22997   0.00000  Uiso   1.00
C517   C     0.42070   0.51990   0.23427   0.00000  Uiso   1.00
C518   C     0.43530   0.46439   0.26381   0.00000  Uiso   1.00
H519   H     0.46378   0.55441   0.21752   0.00000  Uiso   1.00
H520   H     0.40119   0.53848   0.22556   0.00000  Uiso   1.00
H521   H     0.38254   0.48204   0.25530   0.00000  Uiso   1.00
H522   H     0.49004   0.45639   0.27061   0.00000  Uiso   1.00
H523   H     0.52682   0.52080   0.20948   0.00000  Uiso   1.00
C524   C     0.54838   0.68202   0.26659   0.00000  Uiso   1.00
C525   C     0.55286   0.64703   0.24494   0.00000  Uiso   1.00
H526   H     0.56408   0.57683   0.22757   0.00000  Uiso   1.00
H527   H     0.50936   0.61936   0.27264   0.00000  Uiso   1.00
H528   H     0.55217   0.60879   0.28813   0.00000  Uiso   1.00
H529   H     0.51874   0.58431   0.21790   0.00000  Uiso   1.00
H530   H     0.53627   0.49419   0.24714   0.00000  Uiso   1.00
H531   H     0.52048   0.68991   0.26614   0.00000  Uiso   1.00
H532   H     0.55570   0.67772   0.29470   0.00000  Uiso   1.00
N533   N     0.57122   0.71016   0.25068   0.00000  Uiso   1.00
N534   N     0.52710   0.54846   0.26075   0.00000  Uiso   1.00
C535   C     0.41029   0.48766   0.25087   0.00000  Uiso   1.00
loop_
_geom_bond_atom_site_label_1
_geom_bond_atom_site_label_2
_geom_bond_distance
_geom_bond_site_symmetry_2
_ccdc_geom_bond_type
O0     C6      1.298   .     A
O0     Yb3     2.140   .     S
Yb1    Yb3     2.867   .     S
Yb1    O4      2.174   .     S
Yb1    O9      2.128   .     S
Yb1    O10     2.169   .     S
Yb1    O11     2.155   .     S
Yb1    O16     2.168   .     S
Yb1    O17     2.126   .     S
Yb1    O19     2.068   .     S
C2     O16     1.285   .     A
C2     O17     1.274   .     A
C2     C290    1.476   .     S
Yb3    O7      2.136   .     S
Yb3    O10     2.169   .     S
Yb3    O12     2.154   .     S
Yb3    O13     2.151   .     S
Yb3    O18     2.199   .     S
Yb3    O19     2.118   .     S
O4     C6      1.307   .     A
C5     O18     1.228   .     D
C5     O19     1.374   .     S
C5     C404    1.474   .     S
C6     C100    1.465   .     S
O7     C8      1.282   .     A
C8     O12     1.278   .     A
C8     C480    1.476   .     S
O9     C14     1.229   .     D
O10    C14     1.408   .     S
O11    C15     1.305   .     A
O13    C15     1.306   .     A
C14    C312    1.477   .     S
C15    C426    1.454   .     S
O20    C26     1.305   .     A
O20    Yb23    2.130   .     S
Yb21   Yb23    2.985   .     S
Yb21   O24     2.230   .     S
Yb21   O29     2.186   .     S
Yb21   O30     2.126   .     S
Yb21   O31     2.199   .     S
Yb21   O36     2.072   .     S
Yb21   O37     2.157   .     S
Yb21   O39     2.075   .     S
C22    O36     1.279   .     A
C22    O37     1.310   .     A
C22    C84     1.464   .     S
Yb23   O27     2.157   .     S
Yb23   O30     2.171   .     S
Yb23   O32     2.148   .     S
Yb23   O33     2.142   .     S
Yb23   O38     2.194   .     S
Yb23   O39     2.088   .     S
O24    C26     1.328   .     A
C25    O38     1.227   .     D
C25    O39     1.368   .     S
C25    C138    1.469   .     S
C26    C214    1.475   .     S
O27    C28     1.279   .     A
C28    O32     1.278   .     A
C28    C252    1.473   .     S
O29    C34     1.225   .     D
O30    C34     1.374   .     S
O31    C35     1.303   .     A
O33    C35     1.295   .     A
C34    C464    1.463   .     S
C35    C502    1.480   .     S
O40    C46     1.284   .     A
O40    Yb43    2.173   .     S
Yb41   Yb43    3.053   .     S
Yb41   O44     2.151   .     S
Yb41   O49     2.136   .     S
Yb41   O50     2.151   .     S
Yb41   O51     2.254   .     S
Yb41   O56     2.087   .     S
Yb41   O57     2.071   .     S
Yb41   O59     2.129   .     S
C42    O56     1.302   .     A
C42    O57     1.298   .     A
C42    C160    1.465   .     S
Yb43   O47     2.141   .     S
Yb43   O50     2.304   .     S
Yb43   O52     2.195   .     S
Yb43   O53     2.161   .     S
Yb43   O58     2.169   .     S
Yb43   O59     2.267   .     S
O44    C46     1.275   .     A
C45    O58     1.221   .     D
C45    O59     1.382   .     S
C45    C198    1.450   .     S
C46    C442    1.476   .     S
O47    C48     1.270   .     A
C48    O52     1.281   .     A
C48    C388    1.473   .     S
O49    C54     1.239   .     D
O50    C54     1.446   .     S
O51    C55     1.299   .     A
O53    C55     1.260   .     A
C54    C366    1.470   .     S
C55    C236    1.486   .     S
O60    C66     1.317   .     A
O60    Yb63    2.251   .     S
Yb61   Yb63    2.930   .     S
Yb61   O64     2.128   .     S
Yb61   O69     2.197   .     S
Yb61   O70     2.196   .     S
Yb61   O71     2.143   .     S
Yb61   O76     2.184   .     S
Yb61   O77     2.129   .     S
Yb61   O79     2.114   .     S
C62    O76     1.280   .     A
C62    O77     1.270   .     A
C62    C518    1.466   .     S
Yb63   O67     2.144   .     S
Yb63   O70     2.120   .     S
Yb63   O72     2.062   .     S
Yb63   O73     2.173   .     S
Yb63   O78     2.147   .     S
Yb63   O79     2.044   .     S
O64    C66     1.297   .     A
C65    O78     1.216   .     D
C65    O79     1.379   .     S
C65    C274    1.459   .     S
C66    C176    1.482   .     S
O67    C68     1.300   .     A
C68    O72     1.274   .     A
C68    C350    1.482   .     S
O69    C74     1.212   .     D
O70    C74     1.364   .     S
O71    C75     1.294   .     A
O73    C75     1.299   .     A
C74    C122    1.461   .     S
C75    C328    1.466   .     S
C80    C81     1.405   .     A
C80    C85     1.403   .     A
C80    C86     1.507   .     S
C81    C82     1.399   .     A
C81    H87     1.078   .     S
C82    C83     1.400   .     A
C82    H88     1.082   .     S
C83    C84     1.399   .     A
C83    H89     1.082   .     S
C84    C85     1.406   .     A
C85    H90     1.089   .     S
C86    H91     1.112   .     S
C86    H92     1.116   .     S
C86    N115    1.463   1_554 S
C93    C94     1.402   .     A
C93    C95     1.497   .     S
C93    C98     1.406   .     A
C94    C100    1.398   .     A
C94    H104    1.084   .     S
C95    H105    1.119   .     S
C95    H112    1.116   .     S
C95    N116    1.468   .     S
C96    C97     1.521   .     S
C96    H108    1.117   .     S
C96    H111    1.117   .     S
C96    N116    1.462   .     S
C97    C107    1.525   .     S
C97    H109    1.113   .     S
C97    H110    1.112   .     S
C98    C99     1.396   .     A
C98    H101    1.087   .     S
C99    H102    1.083   .     S
C99    C117    1.397   .     A
C100   C117    1.407   .     A
H103   C117    1.083   .     S
C106   C107    1.518   .     S
C106   N115    1.465   .     S
C106   H113    1.115   1_556 S
C106   H114    1.117   1_556 S
H113   C106    1.115   1_554 S
H114   C106    1.117   1_554 S
N115   C86     1.463   1_556 S
C118   C119    1.406   .     A
C118   C123    1.402   .     A
C118   C124    1.494   .     S
C119   C120    1.395   .     A
C119   H125    1.086   .     S
C120   C121    1.392   .     A
C120   H126    1.085   .     S
C121   C122    1.400   .     A
C121   H127    1.078   .     S
C122   C123    1.400   .     A
C123   H128    1.084   .     S
C124   H129    1.115   .     S
C124   H130    1.112   .     S
C124   N153    1.461   .     S
C131   C133    1.495   .     S
C131   C136    1.410   .     A
C131   C132    1.404   1_545 A
C132   C138    1.393   .     A
C132   H142    1.072   .     S
C132   C131    1.404   1_565 A
C133   H143    1.116   .     S
C133   H150    1.110   .     S
C133   N154    1.466   .     S
C134   C135    1.518   .     S
C134   H146    1.114   .     S
C134   H149    1.119   .     S
C134   N154    1.461   .     S
C135   C145    1.517   .     S
C135   H147    1.113   .     S
C135   H148    1.111   .     S
C136   C137    1.394   .     A
C136   H139    1.086   .     S
C137   H140    1.094   .     S
C137   C155    1.399   1_545 A
C138   C155    1.413   .     A
H141   C155    1.090   .     S
C144   C145    1.520   .     S
C144   H151    1.117   .     S
C144   H152    1.117   .     S
C144   N153    1.458   .     S
C155   C137    1.399   1_565 A
C156   C157    1.407   .     A
C156   C161    1.408   .     A
C156   C162    1.501   .     S
C157   C158    1.395   .     A
C157   H163    1.083   .     S
C158   C159    1.398   .     A
C158   H164    1.087   .     S
C159   C160    1.404   .     A
C159   H165    1.079   .     S
C160   C161    1.403   .     A
C161   H166    1.089   .     S
C162   H167    1.119   .     S
C162   H168    1.116   .     S
C162   N191    1.465   .     S
C169   C170    1.414   .     A
C169   C171    1.506   .     S
C169   C174    1.407   .     A
C170   C176    1.409   .     A
C170   H180    1.085   .     S
C171   H181    1.117   .     S
C171   H188    1.111   .     S
C171   N192    1.470   .     S
C172   C173    1.526   .     S
C172   H184    1.114   .     S
C172   H187    1.113   .     S
C172   N192    1.466   .     S
C173   C183    1.526   .     S
C173   H185    1.114   .     S
C173   H186    1.114   .     S
C174   C175    1.391   .     A
C174   H177    1.082   .     S
C175   H178    1.085   .     S
C175   C193    1.391   .     A
C176   C193    1.409   .     A
H179   C193    1.081   .     S
C182   C183    1.522   .     S
C182   H189    1.117   .     S
C182   H190    1.119   .     S
C182   N191    1.462   .     S
C194   C195    1.401   .     A
C194   C199    1.399   .     A
C194   C200    1.495   .     S
C195   C196    1.394   .     A
C195   H201    1.079   .     S
C196   C197    1.392   .     A
C196   H202    1.080   .     S
C197   C198    1.399   .     A
C197   H203    1.083   .     S
C198   C199    1.398   .     A
C199   H204    1.083   .     S
C200   H205    1.118   .     S
C200   H206    1.115   .     S
C200   N229    1.466   .     S
C207   C209    1.499   .     S
C207   C212    1.403   .     A
C207   C208    1.408   1_556 A
C208   C214    1.412   .     A
C208   H218    1.085   .     S
C208   C207    1.408   1_554 A
C209   H219    1.117   .     S
C209   H226    1.116   .     S
C209   N230    1.463   .     S
C210   H222    1.112   .     S
C210   H225    1.116   .     S
C210   N230    1.459   .     S
C210   C211    1.523   1_565 S
C211   C221    1.526   .     S
C211   H223    1.115   .     S
C211   H224    1.112   .     S
C211   C210    1.523   1_545 S
C212   C213    1.391   .     A
C212   H215    1.088   .     S
C213   H216    1.080   .     S
C213   C231    1.392   1_556 A
C214   C231    1.405   .     A
H217   C231    1.079   .     S
C220   C221    1.521   .     S
C220   H227    1.114   .     S
C220   H228    1.114   .     S
C220   N229    1.458   .     S
C231   C213    1.392   1_554 A
C232   C233    1.405   .     A
C232   C237    1.411   .     A
C232   C238    1.508   .     S
C233   C234    1.395   .     A
C233   H239    1.088   .     S
C234   C235    1.399   .     A
C234   H240    1.087   .     S
C235   C236    1.410   .     A
C235   H241    1.083   .     S
C236   C237    1.403   .     A
C237   H242    1.074   .     S
C238   H243    1.115   .     S
C238   H244    1.108   .     S
C238   N267    1.475   .     S
C245   C246    1.405   .     A
C245   C247    1.509   .     S
C245   C250    1.407   .     A
C246   C252    1.407   .     A
C246   H256    1.079   .     S
C247   H257    1.117   .     S
C247   H264    1.109   .     S
C247   N268    1.473   .     S
C248   C249    1.529   .     S
C248   H260    1.118   .     S
C248   H263    1.116   1_545 S
C248   N268    1.471   1_545 S
C249   C259    1.535   .     S
C249   H262    1.111   .     S
C249   H261    1.111   1_545 S
C250   C251    1.401   .     A
C250   H253    1.089   .     S
C251   H254    1.094   .     S
C251   C269    1.399   .     A
C252   C269    1.406   .     A
H255   C269    1.083   .     S
C258   C259    1.532   .     S
C258   H265    1.116   .     S
C258   H266    1.116   .     S
C258   N267    1.470   .     S
H261   C249    1.111   1_565 S
H263   C248    1.116   1_565 S
N268   C248    1.471   1_565 S
C270   C271    1.402   .     A
C270   C275    1.396   .     A
C270   C276    1.494   .     S
C271   C272    1.398   .     A
C271   H277    1.092   .     S
C272   C273    1.399   .     A
C272   H278    1.085   .     S
C273   C274    1.407   .     A
C273   H279    1.085   .     S
C274   C275    1.396   .     A
C275   H280    1.076   .     S
C276   H281    1.120   .     S
C276   H282    1.116   .     S
C276   N305    1.460   .     S
C283   C284    1.408   .     A
C283   C285    1.503   .     S
C283   C288    1.405   .     A
C284   C290    1.404   .     A
C284   H294    1.082   .     S
C285   H295    1.116   .     S
C285   H302    1.110   .     S
C285   N306    1.463   .     S
C286   C287    1.517   .     S
C286   H298    1.114   .     S
C286   H301    1.116   .     S
C286   N306    1.463   .     S
C287   C297    1.519   .     S
C287   H299    1.113   .     S
C287   H300    1.113   .     S
C288   C289    1.394   .     A
C288   H291    1.084   .     S
C289   H292    1.083   .     S
C289   C307    1.396   .     A
C290   C307    1.406   .     A
H293   C307    1.084   .     S
C296   C297    1.520   .     S
C296   H303    1.115   .     S
C296   H304    1.117   .     S
C296   N305    1.461   .     S
C308   C309    1.405   .     A
C308   C313    1.404   .     A
C308   C314    1.497   1_556 S
C309   C310    1.394   .     A
C309   H315    1.085   .     S
C310   C311    1.397   .     A
C310   H316    1.084   .     S
C311   C312    1.410   .     A
C311   H317    1.085   .     S
C312   C313    1.402   .     A
C313   H318    1.082   .     S
C314   H319    1.117   .     S
C314   H320    1.113   .     S
C314   N343    1.464   .     S
C314   C308    1.497   1_554 S
C321   C322    1.401   .     A
C321   C323    1.501   .     S
C321   C326    1.405   .     A
C322   C328    1.405   .     A
C322   H332    1.085   .     S
C323   H333    1.114   .     S
C323   H340    1.112   .     S
C323   N344    1.461   .     S
C324   C325    1.522   .     S
C324   H336    1.115   .     S
C324   H339    1.114   .     S
C324   N344    1.461   .     S
C325   C335    1.521   .     S
C325   H337    1.112   .     S
C325   H338    1.113   .     S
C326   C327    1.399   .     A
C326   H329    1.086   .     S
C327   H330    1.083   .     S
C327   C345    1.397   .     A
C328   C345    1.401   .     A
H331   C345    1.081   .     S
C334   C335    1.518   .     S
C334   H341    1.114   .     S
C334   H342    1.116   .     S
C334   N343    1.458   .     S
C346   C347    1.405   .     A
C346   C351    1.403   .     A
C346   C352    1.522   .     S
C347   C348    1.406   .     A
C347   H353    1.087   .     S
C348   C349    1.401   .     A
C348   H354    1.080   .     S
C349   C350    1.402   .     A
C349   H355    1.081   .     S
C350   C351    1.412   .     A
C351   H356    1.081   .     S
C352   H357    1.115   .     S
C352   H358    1.117   .     S
C352   N381    1.473   .     S
C359   C360    1.409   .     A
C359   C364    1.403   .     A
C359   C361    1.509   1_655 S
C360   C366    1.407   .     A
C360   H370    1.085   .     S
C361   H371    1.117   .     S
C361   H378    1.117   .     S
C361   N382    1.470   .     S
C361   C359    1.509   1_455 S
C362   C363    1.534   .     S
C362   H374    1.116   .     S
C362   H377    1.116   .     S
C362   N382    1.472   .     S
C363   C373    1.544   .     S
C363   H375    1.114   .     S
C363   H376    1.114   .     S
C364   C365    1.394   .     A
C364   H367    1.079   .     S
C365   H368    1.077   .     S
C365   C383    1.394   .     A
C366   C383    1.400   .     A
H369   C383    1.086   .     S
C372   C373    1.532   .     S
C372   H379    1.114   .     S
C372   H380    1.115   .     S
C372   N381    1.475   .     S
C384   C385    1.406   .     A
C384   C389    1.407   .     A
C384   C390    1.505   .     S
C385   C386    1.392   .     A
C385   H391    1.076   .     S
C386   H392    1.083   .     S
C386   C387    1.391   1_565 A
C387   C388    1.407   .     A
C387   H393    1.083   .     S
C387   C386    1.391   1_545 A
C388   C389    1.401   1_545 A
C389   H394    1.081   .     S
C389   C388    1.401   1_565 A
C390   H395    1.116   .     S
C390   H396    1.113   .     S
C390   N419    1.469   .     S
C397   C398    1.408   .     A
C397   C399    1.502   .     S
C397   C402    1.407   .     A
C398   C404    1.404   .     A
C398   H408    1.082   .     S
C399   H409    1.116   .     S
C399   H416    1.112   .     S
C399   N420    1.467   .     S
C400   C401    1.525   .     S
C400   H412    1.116   .     S
C400   H415    1.117   .     S
C400   N420    1.466   .     S
C401   H413    1.113   .     S
C401   H414    1.113   .     S
C401   C411    1.528   1_455 S
C402   C403    1.395   .     A
C402   H405    1.086   .     S
C403   H406    1.088   .     S
C403   C421    1.398   .     A
C404   C421    1.408   .     A
H407   C421    1.082   .     S
C410   C411    1.521   .     S
C410   H418    1.114   .     S
C410   N419    1.464   .     S
C410   H417    1.114   1_655 S
C411   C401    1.528   1_655 S
H417   C410    1.114   1_455 S
C422   C423    1.407   .     A
C422   C427    1.402   .     A
C422   C428    1.499   1_455 S
C423   C424    1.399   .     A
C423   H429    1.082   .     S
C424   C425    1.393   .     A
C424   H430    1.083   .     S
C425   C426    1.398   .     A
C425   H431    1.085   .     S
C426   C427    1.401   .     A
C427   H432    1.085   .     S
C428   H433    1.118   .     S
C428   H434    1.113   .     S
C428   C422    1.499   1_655 S
C428   N457    1.466   1_655 S
C435   C436    1.412   .     A
C435   C437    1.505   .     S
C435   C440    1.413   .     A
C436   C442    1.399   .     A
C436   H446    1.084   .     S
C437   H447    1.119   .     S
C437   H454    1.111   .     S
C437   N458    1.470   .     S
C438   C439    1.531   .     S
C438   H450    1.118   .     S
C438   N458    1.467   .     S
C438   H453    1.117   1_655 S
C439   C449    1.527   .     S
C439   H451    1.114   .     S
C439   H452    1.114   .     S
C440   C441    1.392   .     A
C440   H443    1.081   .     S
C441   H444    1.085   .     S
C441   C459    1.398   .     A
C442   C459    1.407   .     A
H445   C459    1.083   .     S
C448   C449    1.522   .     S
C448   H455    1.114   .     S
C448   H456    1.114   .     S
C448   N457    1.459   1_655 S
H453   C438    1.117   1_455 S
N457   C428    1.466   1_455 S
N457   C448    1.459   1_455 S
C460   C465    1.406   .     A
C460   C466    1.508   .     S
C460   C461    1.412   1_554 A
C461   H467    1.098   .     S
C461   C460    1.412   1_556 A
C461   C462    1.400   1_556 A
C462   C463    1.399   .     A
C462   C461    1.400   1_554 A
C462   H468    1.095   1_554 S
C463   C464    1.404   .     A
C463   H469    1.086   .     S
C464   C465    1.396   .     A
C465   H470    1.070   .     S
C466   H472    1.113   .     S
C466   N495    1.470   .     S
C466   H471    1.120   1_554 S
H468   C462    1.095   1_556 S
H471   C466    1.120   1_556 S
C473   C475    1.505   .     S
C473   C474    1.402   1_554 A
C473   C478    1.405   1_655 A
C474   H484    1.083   .     S
C474   C473    1.402   1_556 A
C474   C480    1.402   1_655 A
C475   H485    1.118   .     S
C475   H492    1.117   .     S
C475   N496    1.468   .     S
C476   C477    1.530   .     S
C476   H488    1.118   .     S
C476   H491    1.116   .     S
C476   N496    1.468   .     S
C477   C487    1.530   .     S
C477   H489    1.113   .     S
C477   H490    1.114   1_554 S
C478   C479    1.400   .     A
C478   H481    1.084   .     S
C478   C473    1.405   1_455 A
C479   H482    1.084   .     S
C479   C497    1.403   1_554 A
C480   C497    1.408   .     A
C480   C474    1.402   1_455 A
H483   C497    1.083   .     S
C486   C487    1.524   .     S
C486   H493    1.114   .     S
C486   N495    1.465   .     S
C486   H494    1.115   1_554 S
H490   C477    1.114   1_556 S
H494   C486    1.115   1_556 S
C497   C479    1.403   1_556 A
C498   C499    1.405   .     A
C498   C503    1.408   .     A
C498   C504    1.505   .     S
C499   C500    1.396   .     A
C499   H505    1.082   .     S
C500   C501    1.393   .     A
C500   H506    1.087   .     S
C501   C502    1.409   .     A
C501   H507    1.082   .     S
C502   C503    1.411   .     A
C503   H508    1.086   .     S
C504   H509    1.115   .     S
C504   H510    1.111   .     S
C504   N533    1.468   .     S
C511   C512    1.411   .     A
C511   C513    1.508   .     S
C511   C516    1.406   .     A
C512   C518    1.401   .     A
C512   H522    1.079   .     S
C513   H523    1.117   .     S
C513   H530    1.111   .     S
C513   N534    1.471   .     S
C514   C515    1.534   .     S
C514   H526    1.116   .     S
C514   H529    1.115   .     S
C514   N534    1.470   .     S
C515   C525    1.532   .     S
C515   H527    1.113   .     S
C515   H528    1.112   .     S
C516   C517    1.397   .     A
C516   H519    1.086   .     S
C517   H520    1.088   .     S
C517   C535    1.397   .     A
C518   C535    1.405   .     A
H521   C535    1.085   .     S
C524   C525    1.531   .     S
C524   H531    1.114   .     S
C524   H532    1.114   .     S
C524   N533    1.465   .     S
