data_lcy+N248+E1
_audit_creation_date              2025-01-21
_audit_creation_method            'Materials Studio'
_symmetry_space_group_name_H-M    'P1'
_symmetry_Int_Tables_number       1
_symmetry_cell_setting            triclinic
loop_
_symmetry_equiv_pos_as_xyz
  x,y,z
_cell_length_a                    33.9292
_cell_length_b                    31.6210
_cell_length_c                    31.7455
_cell_angle_alpha                 88.5810
_cell_angle_beta                  88.1660
_cell_angle_gamma                 88.4508
loop_
_atom_site_label
_atom_site_type_symbol
_atom_site_fract_x
_atom_site_fract_y
_atom_site_fract_z
_atom_site_U_iso_or_equiv
_atom_site_adp_type
_atom_site_occupancy
O0     O     0.15292   0.66734   0.93934   0.00000  Uiso   1.00
Yb1    Yb    0.15709   0.60924   0.84989   0.00000  Uiso   1.00
C2     C     0.20825   0.58214   0.79748   0.00000  Uiso   1.00
Yb3    Yb    0.10047   0.64046   0.91400   0.00000  Uiso   1.00
O4     O     0.19564   0.64634   0.88542   0.00000  Uiso   1.00
C5     C     0.08390   0.66744   0.83869   0.00000  Uiso   1.00
C6     C     0.18742   0.66674   0.91982   0.00000  Uiso   1.00
O7     O     0.06379   0.69142   0.93390   0.00000  Uiso   1.00
C8     C     0.04927   0.66968   0.96475   0.00000  Uiso   1.00
O9     O     0.18740   0.55557   0.88045   0.00000  Uiso   1.00
O10    O     0.13238   0.58322   0.90477   0.00000  Uiso   1.00
O11    O     0.10845   0.57452   0.82773   0.00000  Uiso   1.00
O12    O     0.06401   0.63216   0.96956   0.00000  Uiso   1.00
O13    O     0.06245   0.59685   0.87861   0.00000  Uiso   1.00
C14    C     0.16541   0.55787   0.91186   0.00000  Uiso   1.00
C15    C     0.07385   0.57259   0.84679   0.00000  Uiso   1.00
O16    O     0.19934   0.56102   0.83135   0.00000  Uiso   1.00
O17    O     0.18989   0.61762   0.79281   0.00000  Uiso   1.00
O18    O     0.05961   0.65070   0.86265   0.00000  Uiso   1.00
O19    O     0.12143   0.66579   0.85428   0.00000  Uiso   1.00
O20    O     0.68045   0.92898   0.09822   0.00000  Uiso   1.00
Yb21   Yb    0.59755   0.86746   0.09836   0.00000  Uiso   1.00
C22    C     0.54216   0.84651   0.05373   0.00000  Uiso   1.00
Yb23   Yb    0.65957   0.89257   0.15449   0.00000  Uiso   1.00
O24    O     0.63117   0.90859   0.05421   0.00000  Uiso   1.00
C25    C     0.60580   0.94886   0.16673   0.00000  Uiso   1.00
C26    C     0.66287   0.92989   0.06183   0.00000  Uiso   1.00
O27    O     0.67667   0.93849   0.19808   0.00000  Uiso   1.00
C28    C     0.70758   0.91692   0.20821   0.00000  Uiso   1.00
O29    O     0.64529   0.85121   0.05223   0.00000  Uiso   1.00
O30    O     0.65301   0.83816   0.11791   0.00000  Uiso   1.00
O31    O     0.57562   0.83650   0.15464   0.00000  Uiso   1.00
O32    O     0.71345   0.88277   0.18788   0.00000  Uiso   1.00
O33    O     0.62508   0.85314   0.19886   0.00000  Uiso   1.00
C34    C     0.66855   0.83705   0.07774   0.00000  Uiso   1.00
C35    C     0.59367   0.83232   0.19002   0.00000  Uiso   1.00
O36    O     0.57193   0.82183   0.06053   0.00000  Uiso   1.00
O37    O     0.54392   0.88351   0.06881   0.00000  Uiso   1.00
O38    O     0.63523   0.94604   0.18816   0.00000  Uiso   1.00
O39    O     0.60856   0.92288   0.13199   0.00000  Uiso   1.00
O40    O     0.92877   0.16812   0.67555   0.00000  Uiso   1.00
Yb41   Yb    0.84242   0.16901   0.62292   0.00000  Uiso   1.00
C42    C     0.78608   0.21603   0.59797   0.00000  Uiso   1.00
Yb43   Yb    0.90619   0.11044   0.64986   0.00000  Uiso   1.00
O44    O     0.87632   0.21250   0.65756   0.00000  Uiso   1.00
C45    C     0.83779   0.09166   0.68326   0.00000  Uiso   1.00
C46    C     0.90981   0.20480   0.67583   0.00000  Uiso   1.00
O47    O     0.92996   0.07003   0.69725   0.00000  Uiso   1.00
C48    C     0.95670   0.05564   0.67176   0.00000  Uiso   1.00
O49    O     0.86940   0.20268   0.56829   0.00000  Uiso   1.00
O50    O     0.89298   0.14422   0.59420   0.00000  Uiso   1.00
O51    O     0.82253   0.11489   0.59026   0.00000  Uiso   1.00
O52    O     0.95834   0.07395   0.63531   0.00000  Uiso   1.00
O53    O     0.87226   0.06768   0.60984   0.00000  Uiso   1.00
C54    C     0.89898   0.17956   0.56901   0.00000  Uiso   1.00
C55    C     0.84142   0.07854   0.58716   0.00000  Uiso   1.00
O56    O     0.81792   0.21098   0.57555   0.00000  Uiso   1.00
O57    O     0.78708   0.19957   0.63498   0.00000  Uiso   1.00
O58    O     0.85925   0.06578   0.66516   0.00000  Uiso   1.00
O59    O     0.85180   0.13203   0.67935   0.00000  Uiso   1.00
O60    O     0.38468   0.30886   0.41020   0.00000  Uiso   1.00
Yb61   Yb    0.39325   0.39155   0.34212   0.00000  Uiso   1.00
C62    C     0.44471   0.44558   0.32353   0.00000  Uiso   1.00
Yb63   Yb    0.33634   0.33143   0.37012   0.00000  Uiso   1.00
O64    O     0.42732   0.36089   0.38956   0.00000  Uiso   1.00
C65    C     0.32794   0.38920   0.42540   0.00000  Uiso   1.00
C66    C     0.41808   0.32805   0.41246   0.00000  Uiso   1.00
O67    O     0.28999   0.32024   0.41569   0.00000  Uiso   1.00
C68    C     0.28139   0.28478   0.40041   0.00000  Uiso   1.00
O69    O     0.43308   0.36141   0.29709   0.00000  Uiso   1.00
O70    O     0.37810   0.33080   0.31838   0.00000  Uiso   1.00
O71    O     0.34828   0.41171   0.29896   0.00000  Uiso   1.00
O72    O     0.30410   0.27293   0.36963   0.00000  Uiso   1.00
O73    O     0.30002   0.36626   0.32459   0.00000  Uiso   1.00
C74    C     0.41460   0.32847   0.29705   0.00000  Uiso   1.00
C75    C     0.31288   0.39622   0.29860   0.00000  Uiso   1.00
O76    O     0.44311   0.41120   0.30293   0.00000  Uiso   1.00
O77    O     0.41805   0.45050   0.35219   0.00000  Uiso   1.00
O78    O     0.30912   0.35661   0.42741   0.00000  Uiso   1.00
O79    O     0.34717   0.39538   0.38683   0.00000  Uiso   1.00
C80    C     0.43411   0.80301   1.00691   0.00000  Uiso   1.00
C81    C     0.46586   0.77451   0.01368   0.00000  Uiso   1.00
C82    C     0.50197   0.78901   0.02646   0.00000  Uiso   1.00
C83    C     0.50681   0.83226   0.03306   0.00000  Uiso   1.00
C84    C     0.47568   0.86101   1.02438   0.00000  Uiso   1.00
C85    C     0.43967   0.84651   1.01118   0.00000  Uiso   1.00
C86    C     0.39493   0.78713   0.99706   0.00000  Uiso   1.00
C87    C     0.37267   0.80662   0.96514   0.00000  Uiso   1.00
C88    C     0.33618   0.79071   0.95527   0.00000  Uiso   1.00
C89    C     0.32120   0.75519   0.97733   0.00000  Uiso   1.00
C90    C     0.34291   0.73656   1.01011   0.00000  Uiso   1.00
C91    C     0.37950   0.75231   1.01980   0.00000  Uiso   1.00
C92    C     0.28497   0.73527   0.96354   0.00000  Uiso   1.00
C93    C     0.25585   0.72091   0.99269   0.00000  Uiso   1.00
C94    C     0.22315   0.69947   0.97885   0.00000  Uiso   1.00
C95    C     0.21969   0.69158   0.93580   0.00000  Uiso   1.00
C96    C     0.24850   0.70677   0.90686   0.00000  Uiso   1.00
C97    C     0.28066   0.72835   0.92056   0.00000  Uiso   1.00
H98    H     0.46251   0.74090   0.00972   0.00000  Uiso   1.00
H99    H     0.52550   0.76614   0.03284   0.00000  Uiso   1.00
H100   H     0.47871   0.89454   1.02915   0.00000  Uiso   1.00
H101   H     0.41569   0.86913   1.00601   0.00000  Uiso   1.00
H102   H     0.38395   0.83350   0.94718   0.00000  Uiso   1.00
H103   H     0.31983   0.80583   0.93002   0.00000  Uiso   1.00
H104   H     0.33218   0.70897   0.02730   0.00000  Uiso   1.00
H105   H     0.39584   0.73722   0.04505   0.00000  Uiso   1.00
H106   H     0.25861   0.72599   1.02607   0.00000  Uiso   1.00
H107   H     0.20133   0.68806   1.00174   0.00000  Uiso   1.00
H108   H     0.24642   0.70161   0.87339   0.00000  Uiso   1.00
H109   H     0.30294   0.73849   0.89756   0.00000  Uiso   1.00
C110   C     0.45490   0.21376   0.23785   0.00000  Uiso   1.00
C111   C     0.41642   0.21779   0.25519   0.00000  Uiso   1.00
C112   C     0.40325   0.25554   0.27341   0.00000  Uiso   1.00
C113   C     0.42810   0.29027   0.27438   0.00000  Uiso   1.00
C114   C     0.46612   0.28695   0.25572   0.00000  Uiso   1.00
C115   C     0.47942   0.24897   0.23766   0.00000  Uiso   1.00
C116   C     0.47018   0.17215   0.22276   0.00000  Uiso   1.00
C117   C     0.49488   0.16935   0.18645   0.00000  Uiso   1.00
C118   C     0.51159   0.13031   0.17445   0.00000  Uiso   1.00
C119   C     0.50413   0.09347   0.19878   0.00000  Uiso   1.00
C120   C     0.47827   0.09606   0.23408   0.00000  Uiso   1.00
C121   C     0.46148   0.13491   0.24594   0.00000  Uiso   1.00
C122   C     0.52624   0.05337   0.19021   0.00000  Uiso   1.00
C123   C     0.54458   0.03144   0.22354   0.00000  Uiso   1.00
C124   C     0.56888   0.99610   0.21582   0.00000  Uiso   1.00
C125   C     0.57500   0.98154   0.17468   0.00000  Uiso   1.00
C126   C     0.55526   0.00199   0.14142   0.00000  Uiso   1.00
C127   C     0.53130   0.03803   0.14910   0.00000  Uiso   1.00
H128   H     0.39666   0.19146   0.25522   0.00000  Uiso   1.00
H129   H     0.37380   0.25714   0.28758   0.00000  Uiso   1.00
H130   H     0.48597   0.31317   0.25627   0.00000  Uiso   1.00
H131   H     0.50941   0.24660   0.22506   0.00000  Uiso   1.00
H132   H     0.50171   0.19745   0.16772   0.00000  Uiso   1.00
H133   H     0.53164   0.12924   0.14723   0.00000  Uiso   1.00
H134   H     0.47181   0.06805   0.25313   0.00000  Uiso   1.00
H135   H     0.44281   0.13597   0.27422   0.00000  Uiso   1.00
H136   H     0.54173   0.04292   0.25540   0.00000  Uiso   1.00
H137   H     0.58408   0.98102   0.24192   0.00000  Uiso   1.00
H138   H     0.56009  -0.00841   0.10936   0.00000  Uiso   1.00
H139   H     0.51740   0.05442   0.12292   0.00000  Uiso   1.00
C140   C     0.67466   0.25609   0.54820   0.00000  Uiso   1.00
C141   C     0.67821   0.24649   0.59134   0.00000  Uiso   1.00
C142   C     0.71501   0.23637   0.60788   0.00000  Uiso   1.00
C143   C     0.74917   0.23521   0.58163   0.00000  Uiso   1.00
C144   C     0.74600   0.24654   0.53879   0.00000  Uiso   1.00
C145   C     0.70908   0.25712   0.52224   0.00000  Uiso   1.00
C146   C     0.63504   0.26415   0.53050   0.00000  Uiso   1.00
C147   C     0.60324   0.23822   0.54235   0.00000  Uiso   1.00
C148   C     0.56568   0.24635   0.52641   0.00000  Uiso   1.00
C149   C     0.55912   0.28082   0.49858   0.00000  Uiso   1.00
C150   C     0.59109   0.30624   0.48621   0.00000  Uiso   1.00
C151   C     0.62859   0.29795   0.50189   0.00000  Uiso   1.00
C152   C     0.51927   0.29099   0.48241   0.00000  Uiso   1.00
C153   C     0.50570   0.33324   0.48068   0.00000  Uiso   1.00
C154   C     0.47079   0.34429   0.46086   0.00000  Uiso   1.00
C155   C     0.44849   0.31346   0.44211   0.00000  Uiso   1.00
C156   C     0.46033   0.27072   0.44626   0.00000  Uiso   1.00
C157   C     0.49556   0.25954   0.46644   0.00000  Uiso   1.00
H158   H     0.65235   0.24612   0.61223   0.00000  Uiso   1.00
H159   H     0.71642   0.22764   0.64101   0.00000  Uiso   1.00
H160   H     0.77175   0.24537   0.51776   0.00000  Uiso   1.00
H161   H     0.70727   0.26436   0.48882   0.00000  Uiso   1.00
H162   H     0.60751   0.21146   0.56378   0.00000  Uiso   1.00
H163   H     0.54167   0.22618   0.53642   0.00000  Uiso   1.00
H164   H     0.58709   0.33253   0.46411   0.00000  Uiso   1.00
H165   H     0.65240   0.31850   0.49224   0.00000  Uiso   1.00
H166   H     0.52275   0.35802   0.49363   0.00000  Uiso   1.00
H167   H     0.46205   0.37745   0.45843   0.00000  Uiso   1.00
H168   H     0.44386   0.24645   0.43169   0.00000  Uiso   1.00
H169   H     0.50528   0.22666   0.46763   0.00000  Uiso   1.00
C170   C     0.76061   0.05788   0.78622   0.00000  Uiso   1.00
C171   C     0.77332   0.02691   0.75738   0.00000  Uiso   1.00
C172   C     0.79594   0.03807   0.72135   0.00000  Uiso   1.00
C173   C     0.80549   0.08047   0.71330   0.00000  Uiso   1.00
C174   C     0.78972   0.11174   0.74017   0.00000  Uiso   1.00
C175   C     0.76786   0.10051   0.77657   0.00000  Uiso   1.00
C176   C     0.74340   0.04519   0.82794   0.00000  Uiso   1.00
C177   C     0.75968   0.05935   0.86512   0.00000  Uiso   1.00
C178   C     0.74673   0.04339   0.90459   0.00000  Uiso   1.00
C179   C     0.71699   0.01327   0.90759   0.00000  Uiso   1.00
C180   C     0.69927   1.00113   0.87034   0.00000  Uiso   1.00
C181   C     0.71264   0.01653   0.83097   0.00000  Uiso   1.00
C182   C     0.70589   0.99239   0.94872   0.00000  Uiso   1.00
C183   C     0.69783   0.94906   0.94997   0.00000  Uiso   1.00
C184   C     0.68544   0.92905   0.98737   0.00000  Uiso   1.00
C185   C     0.68124   0.95152   0.02486   0.00000  Uiso   1.00
C186   C     0.69089   0.99440   0.02461   0.00000  Uiso   1.00
C187   C     0.70303   0.01480   0.98666   0.00000  Uiso   1.00
H188   H     0.76811  -0.00622   0.76422   0.00000  Uiso   1.00
H189   H     0.80811   0.01332   0.70144   0.00000  Uiso   1.00
H190   H     0.79671   0.14468   0.73478   0.00000  Uiso   1.00
H191   H     0.75796   0.12495   0.79807   0.00000  Uiso   1.00
H192   H     0.78366   0.08133   0.86351   0.00000  Uiso   1.00
H193   H     0.76114   0.05325   0.93253   0.00000  Uiso   1.00
H194   H     0.67539   0.97907   0.87156   0.00000  Uiso   1.00
H195   H     0.69929   1.00568   0.80277   0.00000  Uiso   1.00
H196   H     0.70085   0.93048   0.92181   0.00000  Uiso   1.00
H197   H     0.67846   0.89586   0.98683   0.00000  Uiso   1.00
H198   H     0.68735   0.01242   0.05313   0.00000  Uiso   1.00
H199   H     0.70888   0.04828   0.98671   0.00000  Uiso   1.00
C200   C     0.81220   0.00775   0.47998   0.00000  Uiso   1.00
C201   C     0.84356  -0.00646   0.50492   0.00000  Uiso   1.00
C202   C     0.85154   0.01438   0.54213   0.00000  Uiso   1.00
C203   C     0.82810   0.04953   0.55480   0.00000  Uiso   1.00
C204   C     0.79488   0.06118   0.53129   0.00000  Uiso   1.00
C205   C     0.78717   0.04067   0.49425   0.00000  Uiso   1.00
C206   C     0.80720  -0.00840   0.43729   0.00000  Uiso   1.00
C207   C     0.80810   0.02006   0.40270   0.00000  Uiso   1.00
C208   C     0.79876   0.00684   0.36274   0.00000  Uiso   1.00
C209   C     0.78782   0.96494   0.35657   0.00000  Uiso   1.00
C210   C     0.78927   0.93580   0.39079   0.00000  Uiso   1.00
C211   C     0.79895   0.94906   0.43092   0.00000  Uiso   1.00
C212   C     0.77087   0.95328   0.31596   0.00000  Uiso   1.00
C213   C     0.77917   0.91374   0.29776   0.00000  Uiso   1.00
C214   C     0.76010   0.90227   0.26129   0.00000  Uiso   1.00
C215   C     0.73231   0.93010   0.24273   0.00000  Uiso   1.00
C216   C     0.72504   0.96996   0.26024   0.00000  Uiso   1.00
C217   C     0.74400  -0.01862   0.29634   0.00000  Uiso   1.00
H218   H     0.86312   0.96805   0.49433   0.00000  Uiso   1.00
H219   H     0.87743   1.00471   0.55937   0.00000  Uiso   1.00
H220   H     0.77603   0.08792   0.54002   0.00000  Uiso   1.00
H221   H     0.76249   0.05170   0.47570   0.00000  Uiso   1.00
H222   H     0.81511   0.05288   0.40693   0.00000  Uiso   1.00
H223   H     0.79890   0.02978   0.33683   0.00000  Uiso   1.00
H224   H     0.78085   0.90338   0.38706   0.00000  Uiso   1.00
H225   H     0.79805   0.92670   0.45731   0.00000  Uiso   1.00
H226   H     0.79990   0.89153   0.31207   0.00000  Uiso   1.00
H227   H     0.76599   0.87117   0.24858   0.00000  Uiso   1.00
H228   H     0.70358  -0.00805   0.24679   0.00000  Uiso   1.00
H229   H     0.73628   0.01167   0.30995   0.00000  Uiso   1.00
C230   C     0.32074   0.46712   0.53279   0.00000  Uiso   1.00
C231   C     0.28774   0.46273   0.50775   0.00000  Uiso   1.00
C232   C     0.29055   0.43860   0.47158   0.00000  Uiso   1.00
C233   C     0.32660   0.41950   0.45931   0.00000  Uiso   1.00
C234   C     0.36008   0.42510   0.48307   0.00000  Uiso   1.00
C235   C     0.35707   0.44840   0.51998   0.00000  Uiso   1.00
C236   C     0.31591   0.48848   0.57362   0.00000  Uiso   1.00
C237   C     0.32920   0.46854   0.61080   0.00000  Uiso   1.00
C238   C     0.31887   0.48534   0.65008   0.00000  Uiso   1.00
C239   C     0.29561   0.52265   0.65278   0.00000  Uiso   1.00
C240   C     0.28426   0.54374   0.61539   0.00000  Uiso   1.00
C241   C     0.29420   0.52675   0.57625   0.00000  Uiso   1.00
C242   C     0.27979   0.53763   0.69400   0.00000  Uiso   1.00
C243   C     0.27523   0.58116   0.70106   0.00000  Uiso   1.00
C244   C     0.25343   0.59552   0.73603   0.00000  Uiso   1.00
C245   C     0.23651   0.56664   0.76507   0.00000  Uiso   1.00
C246   C     0.24355   0.52314   0.76000   0.00000  Uiso   1.00
C247   C     0.26486   0.50870   0.72452   0.00000  Uiso   1.00
H248   H     0.25925   0.47614   0.51735   0.00000  Uiso   1.00
H249   H     0.26439   0.43382   0.45377   0.00000  Uiso   1.00
H250   H     0.38787   0.40949   0.47438   0.00000  Uiso   1.00
H251   H     0.38281   0.45110   0.53894   0.00000  Uiso   1.00
H252   H     0.34587   0.43888   0.60962   0.00000  Uiso   1.00
H253   H     0.32815   0.46861   0.67840   0.00000  Uiso   1.00
H254   H     0.26594   0.57230   0.61637   0.00000  Uiso   1.00
H255   H     0.28381   0.54283   0.54802   0.00000  Uiso   1.00
H256   H     0.28730   0.60413   0.67868   0.00000  Uiso   1.00
H257   H     0.24875   0.62928   0.73965   0.00000  Uiso   1.00
H258   H     0.23056   0.50030   0.78195   0.00000  Uiso   1.00
H259   H     0.26757   0.47494   0.71976   0.00000  Uiso   1.00
C260   C     0.18885   0.49802   0.03162   0.00000  Uiso   1.00
C261   C     0.15506   0.52406   0.02641   0.00000  Uiso   1.00
C262   C     0.14679   0.54218   0.98696   0.00000  Uiso   1.00
C263   C     0.17227   0.53490   0.95204   0.00000  Uiso   1.00
C264   C     0.20550   0.50805   0.95685   0.00000  Uiso   1.00
C265   C     0.21361   0.48956  -0.00375   0.00000  Uiso   1.00
C266   C     0.19955   0.48182   0.07417   0.00000  Uiso   1.00
C267   C     0.21371   0.44000   0.08020   0.00000  Uiso   1.00
C268   C     0.22684   0.42598   0.11960   0.00000  Uiso   1.00
C269   C     0.22647   0.45360   0.15359   0.00000  Uiso   1.00
C270   C     0.21116   0.49496   0.14793   0.00000  Uiso   1.00
C271   C     0.19764   0.50888   0.10871   0.00000  Uiso   1.00
C272   C     0.24494   0.44037   0.19370   0.00000  Uiso   1.00
C273   C     0.27145   0.46711   0.21230   0.00000  Uiso   1.00
C274   C     0.29251   0.45321   0.24729   0.00000  Uiso   1.00
C275   C     0.28671   0.41271   0.26525   0.00000  Uiso   1.00
C276   C     0.25870   0.38674   0.24804   0.00000  Uiso   1.00
C277   C     0.23835   0.40022   0.21221   0.00000  Uiso   1.00
H278   H     0.13532   0.53090   0.05300   0.00000  Uiso   1.00
H279   H     0.12111   0.56301   0.98407   0.00000  Uiso   1.00
H280   H     0.22577   0.50236   0.93041   0.00000  Uiso   1.00
H281   H     0.24011   0.47001  -0.00062   0.00000  Uiso   1.00
H282   H     0.21515   0.41832   0.05428   0.00000  Uiso   1.00
H283   H     0.23877   0.39403   0.12308   0.00000  Uiso   1.00
H284   H     0.21043   0.51677   0.17372   0.00000  Uiso   1.00
H285   H     0.18721   0.54139   0.10504   0.00000  Uiso   1.00
H286   H     0.27718   0.49819   0.19873   0.00000  Uiso   1.00
H287   H     0.31402   0.47387   0.25976   0.00000  Uiso   1.00
H288   H     0.25389   0.35528   0.26109   0.00000  Uiso   1.00
H289   H     0.21788   0.37908   0.19861   0.00000  Uiso   1.00
C290   C     0.17036   0.23615   0.44426   0.00000  Uiso   1.00
C291   C     0.18678   0.22332   0.40510   0.00000  Uiso   1.00
C292   C     0.22446   0.23647   0.39142   0.00000  Uiso   1.00
C293   C     0.24624   0.26234   0.41688   0.00000  Uiso   1.00
C294   C     0.23083   0.27267   0.45701   0.00000  Uiso   1.00
C295   C     0.19345   0.25981   0.47052   0.00000  Uiso   1.00
C296   C     0.12872   0.22725   0.45725   0.00000  Uiso   1.00
C297   C     0.10487   0.25900   0.47622   0.00000  Uiso   1.00
C298   C     0.06628   0.25089   0.49023   0.00000  Uiso   1.00
C299   C     0.05044   0.21068   0.48597   0.00000  Uiso   1.00
C300   C     0.07396   0.17907   0.46616   0.00000  Uiso   1.00
C301   C     0.11258   0.18738   0.45165   0.00000  Uiso   1.00
C302   C     0.01028   0.20156   0.50395   0.00000  Uiso   1.00
C303   C     0.00334   0.16325   0.52598   0.00000  Uiso   1.00
C304   C     0.96677   0.15601   0.54607   0.00000  Uiso   1.00
C305   C     0.93611   0.18671   0.54445   0.00000  Uiso   1.00
C306   C     0.94244   0.22455   0.52150   0.00000  Uiso   1.00
C307   C    -0.02083   0.23192   0.50146   0.00000  Uiso   1.00
H308   H     0.16969   0.20507   0.38418   0.00000  Uiso   1.00
H309   H     0.23552   0.22852   0.36014   0.00000  Uiso   1.00
H310   H     0.24708   0.29241   0.47740   0.00000  Uiso   1.00
H311   H     0.18220   0.26937   0.50125   0.00000  Uiso   1.00
H312   H     0.11615   0.29031   0.48032   0.00000  Uiso   1.00
H313   H     0.04919   0.27586   0.50553   0.00000  Uiso   1.00
H314   H     0.06250   0.14788   0.46195   0.00000  Uiso   1.00
H315   H     0.13015   0.16233   0.43705   0.00000  Uiso   1.00
H316   H     0.02669   0.13946   0.52910   0.00000  Uiso   1.00
H317   H     0.96278   0.12665   0.56376   0.00000  Uiso   1.00
H318   H     0.91935   0.24882   0.51988   0.00000  Uiso   1.00
H319   H    -0.01662   0.26159   0.48436   0.00000  Uiso   1.00
C320   C     1.01359   0.93684   0.70142   0.00000  Uiso   1.00
C321   C     1.01541   0.95335   0.65999   0.00000  Uiso   1.00
C322   C     0.99943   0.99364   0.65068   0.00000  Uiso   1.00
C323   C     0.98093   0.01774   0.68263   0.00000  Uiso   1.00
C324   C     0.98060   0.00182   0.72433   0.00000  Uiso   1.00
C325   C     0.99703   0.96188   0.73368   0.00000  Uiso   1.00
C326   C     1.02710   0.89293   0.71115   0.00000  Uiso   1.00
C327   C     0.05197   0.88466   0.74496   0.00000  Uiso   1.00
C328   C     0.06220   0.84311   0.75671   0.00000  Uiso   1.00
C329   C     0.04713   0.80901   0.73536   0.00000  Uiso   1.00
C330   C     0.02241   0.81707   0.70136   0.00000  Uiso   1.00
C331   C     1.01288   0.85883   0.68893   0.00000  Uiso   1.00
C332   C     0.05565   0.76552   0.75103   0.00000  Uiso   1.00
C333   C     0.02519   0.74090   0.76869   0.00000  Uiso   1.00
C334   C     0.03414   0.70518   0.79395   0.00000  Uiso   1.00
C335   C     0.07365   0.69388   0.80163   0.00000  Uiso   1.00
C336   C     0.10383   0.71581   0.78002   0.00000  Uiso   1.00
C337   C     0.09492   0.75156   0.75517   0.00000  Uiso   1.00
H338   H     1.02850   0.93471   0.63477   0.00000  Uiso   1.00
H339   H     0.99960   1.00489   0.61819   0.00000  Uiso   1.00
H340   H     0.96619   0.01948   0.74951   0.00000  Uiso   1.00
H341   H     0.99513   0.94969   0.76586   0.00000  Uiso   1.00
H342   H     0.06302   0.91042   0.76266   0.00000  Uiso   1.00
H343   H     0.08093   0.83754   0.78340   0.00000  Uiso   1.00
H344   H     0.01035   0.79111   0.68476   0.00000  Uiso   1.00
H345   H     0.99328   0.86448   0.66300   0.00000  Uiso   1.00
H346   H    -0.00533   0.75123   0.76580   0.00000  Uiso   1.00
H347   H     0.01033   0.68881   0.81035   0.00000  Uiso   1.00
H348   H     0.13452   0.70756   0.78519   0.00000  Uiso   1.00
H349   H     0.11877   0.77002   0.74156   0.00000  Uiso   1.00
C350   C     0.01169   0.46669   0.80470   0.00000  Uiso   1.00
C351   C     0.03228   0.49290   0.77570   0.00000  Uiso   1.00
C352   C     0.04986   0.52944   0.78895   0.00000  Uiso   1.00
C353   C     0.04693   0.54093   0.83138   0.00000  Uiso   1.00
C354   C     0.02366   0.51679   0.85981   0.00000  Uiso   1.00
C355   C     1.00625   0.47983   0.84659   0.00000  Uiso   1.00
C356   C     0.99815   0.42482   0.79150   0.00000  Uiso   1.00
C357   C     0.96110   0.40982   0.80483   0.00000  Uiso   1.00
C358   C     0.94795   0.37137   0.79036   0.00000  Uiso   1.00
C359   C     0.97156   0.34706   0.76228   0.00000  Uiso   1.00
C360   C     1.00929   0.36119   0.75049   0.00000  Uiso   1.00
C361   C     0.02241   0.39958   0.76491   0.00000  Uiso   1.00
C362   C     0.95571   0.30916   0.74253   0.00000  Uiso   1.00
C363   C     0.97961   0.27288   0.73486   0.00000  Uiso   1.00
C364   C     0.96493   0.23868   0.71341   0.00000  Uiso   1.00
C365   C     0.92617   0.24025   0.69898   0.00000  Uiso   1.00
C366   C     0.90226   0.27634   0.70729   0.00000  Uiso   1.00
C367   C     0.91681   0.31022   0.72876   0.00000  Uiso   1.00
H368   H     0.03598   0.48431   0.74296   0.00000  Uiso   1.00
H369   H     0.06740   0.54772   0.76635   0.00000  Uiso   1.00
H370   H     0.02141   0.52466   0.89283   0.00000  Uiso   1.00
H371   H     0.99056   0.46027   0.86967   0.00000  Uiso   1.00
H372   H     0.94176   0.42843   0.82534   0.00000  Uiso   1.00
H373   H     0.91893   0.36102   0.80054   0.00000  Uiso   1.00
H374   H     1.02813   0.34341   0.72876   0.00000  Uiso   1.00
H375   H     0.05150   0.40977   0.75481   0.00000  Uiso   1.00
H376   H     1.00966   0.27098   0.74542   0.00000  Uiso   1.00
H377   H     0.98405   0.21133   0.70767   0.00000  Uiso   1.00
H378   H     0.87207   0.27862   0.69717   0.00000  Uiso   1.00
H379   H     0.89781   0.33787   0.73351   0.00000  Uiso   1.00
C380   C     0.78621   0.79015   0.05135   0.00000  Uiso   1.00
C381   C     0.77332   0.79925   0.09263   0.00000  Uiso   1.00
C382   C     0.73500   0.81453   0.10072   0.00000  Uiso   1.00
C383   C     0.70893   0.82159   0.06770   0.00000  Uiso   1.00
C384   C     0.72187   0.81340   0.02619   0.00000  Uiso   1.00
C385   C     0.76021   0.79741   0.01811   0.00000  Uiso   1.00
C386   C     0.82641   0.77216   0.04352   0.00000  Uiso   1.00
C387   C     0.85900   0.78969   0.06230   0.00000  Uiso   1.00
C388   C     0.89686   0.77216   0.05568   0.00000  Uiso   1.00
C389   C     0.90270   0.73639   0.03072   0.00000  Uiso   1.00
C390   C     0.87011   0.71871   0.01216   0.00000  Uiso   1.00
C391   C     0.83233   0.73661   0.01824   0.00000  Uiso   1.00
C392   C     0.94291   0.71932   0.02125   0.00000  Uiso   1.00
C393   C     0.95103   0.67550   0.02294   0.00000  Uiso   1.00
C394   C     0.98743   0.65916   0.00798   0.00000  Uiso   1.00
C395   C     0.01574   0.68645   0.99028   0.00000  Uiso   1.00
C396   C     1.00843   0.73034   0.99089   0.00000  Uiso   1.00
C397   C     0.97245   0.74667   1.00653   0.00000  Uiso   1.00
H398   H     0.79261   0.79351   0.11881   0.00000  Uiso   1.00
H399   H     0.72571   0.82065   0.13297   0.00000  Uiso   1.00
H400   H     0.70223   0.81863   0.00022   0.00000  Uiso   1.00
H401   H     0.76964   0.79078  -0.01404   0.00000  Uiso   1.00
H402   H     0.85522   0.81726   0.08173   0.00000  Uiso   1.00
H403   H     0.92160   0.78643   1.07012   0.00000  Uiso   1.00
H404   H     0.87404   0.69153  -0.00777   0.00000  Uiso   1.00
H405   H     0.80767   0.72234   0.00364   0.00000  Uiso   1.00
H406   H     0.92864   0.65390   0.03436   0.00000  Uiso   1.00
H407   H     0.99227   0.62518   0.00750   0.00000  Uiso   1.00
H408   H     0.02981   0.75196   0.97723   0.00000  Uiso   1.00
H409   H     0.96681   0.78054   1.00458   0.00000  Uiso   1.00
C410   C     0.56607   0.71957   0.26014   0.00000  Uiso   1.00
C411   C     0.54271   0.73350   0.22685   0.00000  Uiso   1.00
C412   C     0.54927   0.77243   0.20689   0.00000  Uiso   1.00
C413   C     0.57997   0.79811   0.21930   0.00000  Uiso   1.00
C414   C     0.60169   0.78527   0.25468   0.00000  Uiso   1.00
C415   C     0.59465   0.74619   0.27509   0.00000  Uiso   1.00
C416   C     0.56115   0.67623   0.27697   0.00000  Uiso   1.00
C417   C     0.53505   0.66878   0.31115   0.00000  Uiso   1.00
C418   C     0.52327   0.62765   0.32117   0.00000  Uiso   1.00
C419   C     0.53743   0.59321   0.29712   0.00000  Uiso   1.00
C420   C     0.56534   0.60071   0.26435   0.00000  Uiso   1.00
C421   C     0.57697   0.64191   0.25423   0.00000  Uiso   1.00
C422   C     0.52023   0.55070   0.30394   0.00000  Uiso   1.00
C423   C     0.51097   0.52575   0.26952   0.00000  Uiso   1.00
C424   C     0.48865   0.48929   0.27574   0.00000  Uiso   1.00
C425   C     0.47473   0.47789   0.31635   0.00000  Uiso   1.00
C426   C     0.48616   0.50112   0.35084   0.00000  Uiso   1.00
C427   C     0.50918   0.53670   0.34480   0.00000  Uiso   1.00
H428   H     0.52051   0.71324   0.21503   0.00000  Uiso   1.00
H429   H     0.53197   0.78092   0.17976   0.00000  Uiso   1.00
H430   H     0.62561   0.80409   0.26502   0.00000  Uiso   1.00
H431   H     0.61266   0.73587   0.30109   0.00000  Uiso   1.00
H432   H     0.52207   0.69503   0.32849   0.00000  Uiso   1.00
H433   H     0.50126   0.62325   0.34620   0.00000  Uiso   1.00
H434   H     0.57717   0.57489   0.24567   0.00000  Uiso   1.00
H435   H     0.59690   0.64719   0.22740   0.00000  Uiso   1.00
H436   H     0.51894   0.53564   0.23757   0.00000  Uiso   1.00
H437   H     0.48014   0.47180   0.24870   0.00000  Uiso   1.00
H438   H     0.47614   0.49253   0.38257   0.00000  Uiso   1.00
H439   H     0.51703   0.55421   0.37206   0.00000  Uiso   1.00
loop_
_geom_bond_atom_site_label_1
_geom_bond_atom_site_label_2
_geom_bond_distance
_geom_bond_site_symmetry_2
_ccdc_geom_bond_type
O0     C6      1.307   .     A
O0     Yb3     2.178   .     S
Yb1    Yb3     2.925   .     S
Yb1    O4      2.145   .     S
Yb1    O9      2.183   .     S
Yb1    O10     2.071   .     S
Yb1    O11     2.153   .     S
Yb1    O16     2.144   .     S
Yb1    O17     2.111   .     S
Yb1    O19     2.137   .     S
C2     O16     1.284   .     A
C2     O17     1.276   .     A
C2     C245    1.468   .     S
Yb3    O7      2.106   .     S
Yb3    O10     2.106   .     S
Yb3    O12     2.137   .     S
Yb3    O13     2.257   .     S
Yb3    O18     2.186   .     S
Yb3    O19     2.147   .     S
O4     C6      1.301   .     A
C5     O18     1.225   .     D
C5     O19     1.380   .     S
C5     C335    1.472   .     S
C6     C95     1.475   .     S
O7     C8      1.276   .     A
C8     O12     1.283   .     A
C8     C395    1.470   .     S
O9     C14     1.228   .     D
O10    C14     1.381   .     S
O11    C15     1.306   .     A
O13    C15     1.325   .     A
C14    C263    1.474   .     S
C15    C353    1.476   .     S
O20    C26     1.316   .     A
O20    Yb23    2.209   .     S
Yb21   Yb23    2.938   .     S
Yb21   O24     2.201   .     S
Yb21   O29     2.207   .     S
Yb21   O30     2.176   .     S
Yb21   O31     2.138   .     S
Yb21   O36     2.121   .     S
Yb21   O37     2.118   .     S
Yb21   O39     2.122   .     S
C22    O36     1.280   .     A
C22    O37     1.279   .     A
C22    C83     1.472   .     S
Yb23   O27     2.134   .     S
Yb23   O30     2.120   .     S
Yb23   O32     2.154   .     S
Yb23   O33     2.189   .     S
Yb23   O38     2.154   .     S
Yb23   O39     2.093   .     S
O24    C26     1.316   .     A
C25    O38     1.226   .     D
C25    O39     1.391   .     S
C25    C125    1.470   .     S
C26    C185    1.473   .     S
O27    C28     1.281   .     A
C28    O32     1.279   .     A
C28    C215    1.476   .     S
O29    C34     1.218   .     D
O30    C34     1.365   .     S
O31    C35     1.299   .     A
O33    C35     1.309   .     A
C34    C383    1.470   .     S
C35    C413    1.483   .     S
O40    C46     1.311   .     A
O40    Yb43    2.183   .     S
Yb41   Yb43    2.944   .     S
Yb41   O44     2.160   .     S
Yb41   O49     2.200   .     S
Yb41   O50     2.062   .     S
Yb41   O51     2.157   .     S
Yb41   O56     2.153   .     S
Yb41   O57     2.116   .     S
Yb41   O59     2.143   .     S
C42    O56     1.283   .     A
C42    O57     1.274   .     A
C42    C143    1.480   .     S
Yb43   O47     2.115   .     S
Yb43   O50     2.097   .     S
Yb43   O52     2.131   .     S
Yb43   O53     2.243   .     S
Yb43   O58     2.192   .     S
Yb43   O59     2.145   .     S
O44    C46     1.306   .     A
C45    O58     1.222   .     D
C45    O59     1.375   .     S
C45    C173    1.474   .     S
C46    C365    1.485   .     S
O47    C48     1.278   .     A
C48    O52     1.281   .     A
C48    C323    1.475   .     S
O49    C54     1.226   .     D
O50    C54     1.374   .     S
O51    C55     1.305   .     A
O53    C55     1.322   .     A
C54    C305    1.480   .     S
C55    C203    1.483   .     S
O60    C66     1.305   .     A
O60    Yb63    2.201   .     S
Yb61   Yb63    2.853   .     S
Yb61   O64     2.127   .     S
Yb61   O69     2.157   .     S
Yb61   O70     2.162   .     S
Yb61   O71     2.156   .     S
Yb61   O76     2.163   .     S
Yb61   O77     2.102   .     S
Yb61   O79     2.081   .     S
C62    O76     1.286   .     A
C62    O77     1.272   .     A
C62    C425    1.471   .     S
Yb63   O67     2.133   .     S
Yb63   O70     2.135   .     S
Yb63   O72     2.175   .     S
Yb63   O73     2.187   .     S
Yb63   O78     2.172   .     S
Yb63   O79     2.148   .     S
O64    C66     1.293   .     A
C65    O78     1.226   .     D
C65    O79     1.381   .     S
C65    C233    1.458   .     S
C66    C155    1.476   .     S
O67    C68     1.277   .     A
C68    O72     1.282   .     A
C68    C293    1.479   .     S
O69    C74     1.230   .     D
O70    C74     1.393   .     S
O71    C75     1.310   .     A
O73    C75     1.315   .     A
C74    C113    1.476   .     S
C75    C275    1.480   .     S
C80    C85     1.404   .     A
C80    C86     1.479   .     S
C80    C81     1.404   1_556 A
C81    C82     1.395   .     A
C81    H98     1.083   .     S
C81    C80     1.404   1_554 A
C82    C83     1.404   .     A
C82    H99     1.083   .     S
C83    C84     1.404   1_554 A
C84    C85     1.397   .     A
C84    H100    1.083   .     S
C84    C83     1.404   1_556 A
C85    H101    1.083   .     S
C86    C87     1.403   .     A
C86    C91     1.405   .     A
C87    C88     1.397   .     A
C87    H102    1.083   .     S
C88    C89     1.407   .     A
C88    H103    1.084   .     S
C89    C90     1.403   .     A
C89    C92     1.479   .     S
C90    C91     1.396   .     A
C90    H104    1.083   1_556 S
C91    H105    1.083   1_556 S
C92    C93     1.409   .     A
C92    C97     1.400   .     A
C93    C94     1.404   .     A
C93    H106    1.083   .     S
C94    C95     1.404   .     A
C94    H107    1.083   .     S
C95    C96     1.406   .     A
C96    C97     1.389   .     A
C96    H108    1.084   .     S
C97    H109    1.083   .     S
H104   C90     1.083   1_554 S
H105   C91     1.083   1_554 S
C110   C111    1.404   .     A
C110   C115    1.408   .     A
C110   C116    1.486   .     S
C111   C112    1.396   .     A
C111   H128    1.083   .     S
C112   C113    1.404   .     A
C112   H129    1.083   .     S
C113   C114    1.405   .     A
C114   C115    1.401   .     A
C114   H130    1.083   .     S
C115   H131    1.083   .     S
C116   C117    1.406   .     A
C116   C121    1.406   .     A
C117   C118    1.401   .     A
C117   H132    1.083   .     S
C118   C119    1.406   .     A
C118   H133    1.083   .     S
C119   C120    1.404   .     A
C119   C122    1.482   .     S
C120   C121    1.395   .     A
C120   H134    1.083   .     S
C121   H135    1.083   .     S
C122   C123    1.404   .     A
C122   C127    1.407   .     A
C123   H136    1.083   .     S
C123   C124    1.392   1_545 A
C124   C125    1.403   .     A
C124   H137    1.084   .     S
C124   C123    1.392   1_565 A
C125   C126    1.403   1_565 A
C126   C127    1.403   .     A
C126   H138    1.083   .     S
C126   C125    1.403   1_545 A
C127   H139    1.083   .     S
C140   C141    1.403   .     A
C140   C145    1.408   .     A
C140   C146    1.487   .     S
C141   C142    1.396   .     A
C141   H158    1.083   .     S
C142   C143    1.406   .     A
C142   H159    1.083   .     S
C143   C144    1.404   .     A
C144   C145    1.403   .     A
C144   H160    1.083   .     S
C145   H161    1.083   .     S
C146   C147    1.409   .     A
C146   C151    1.403   .     A
C147   C148    1.401   .     A
C147   H162    1.082   .     S
C148   C149    1.404   .     A
C148   H163    1.083   .     S
C149   C150    1.407   .     A
C149   C152    1.486   .     S
C150   C151    1.397   .     A
C150   H164    1.083   .     S
C151   H165    1.082   .     S
C152   C153    1.402   .     A
C152   C157    1.410   .     A
C153   C154    1.391   .     A
C153   H166    1.083   .     S
C154   C155    1.405   .     A
C154   H167    1.084   .     S
C155   C156    1.404   .     A
C156   C157    1.407   .     A
C156   H168    1.083   .     S
C157   H169    1.082   .     S
C170   C171    1.407   .     A
C170   C175    1.402   .     A
C170   C176    1.481   .     S
C171   C172    1.400   .     A
C171   H188    1.083   .     S
C172   C173    1.403   .     A
C172   H189    1.083   .     S
C173   C174    1.406   .     A
C174   C175    1.397   .     A
C174   H190    1.083   .     S
C175   H191    1.083   .     S
C176   C177    1.407   .     A
C176   C181    1.400   .     A
C177   C178    1.401   .     A
C177   H192    1.084   .     S
C178   C179    1.406   .     A
C178   H193    1.083   .     S
C179   C180    1.410   1_545 A
C179   C182    1.491   1_545 S
C180   H194    1.082   .     S
C180   C179    1.410   1_565 A
C180   C181    1.397   1_565 A
C181   C180    1.397   1_545 A
C181   H195    1.083   1_545 S
C182   C183    1.404   .     A
C182   C179    1.491   1_565 S
C182   C187    1.412   1_565 A
C183   C184    1.390   .     A
C183   H196    1.083   .     S
C184   H197    1.083   .     S
C184   C185    1.402   1_556 A
C185   C186    1.403   .     A
C185   C184    1.402   1_554 A
C186   C187    1.408   1_564 A
C186   H198    1.083   1_565 S
C187   H199    1.082   .     S
C187   C182    1.412   1_545 A
C187   C186    1.408   1_546 A
H195   C181    1.083   1_565 S
H198   C186    1.083   1_545 S
C200   C201    1.404   .     A
C200   C205    1.400   .     A
C200   C206    1.476   .     S
C201   C202    1.404   .     A
C201   H218    1.083   1_545 S
C202   C203    1.408   .     A
C202   H219    1.083   1_545 S
C203   C204    1.408   .     A
C204   C205    1.392   .     A
C204   H220    1.082   .     S
C205   H221    1.084   .     S
C206   C207    1.402   .     A
C206   C211    1.402   1_545 A
C207   C208    1.394   .     A
C207   H222    1.084   .     S
C208   H223    1.083   .     S
C208   C209    1.406   1_545 A
C209   C210    1.408   .     A
C209   C212    1.487   .     S
C209   C208    1.406   1_565 A
C210   C211    1.403   .     A
C210   H224    1.082   .     S
C211   H225    1.083   .     S
C211   C206    1.402   1_565 A
C212   C213    1.408   .     A
C212   C217    1.405   1_565 A
C213   C214    1.404   .     A
C213   H226    1.083   .     S
C214   C215    1.406   .     A
C214   H227    1.083   .     S
C215   C216    1.403   .     A
C216   C217    1.392   1_565 A
C216   H228    1.083   1_565 S
C217   H229    1.083   .     S
C217   C212    1.405   1_545 A
C217   C216    1.392   1_545 A
H218   C201    1.083   1_565 S
H219   C202    1.083   1_565 S
H228   C216    1.083   1_545 S
C230   C231    1.406   .     A
C230   C235    1.406   .     A
C230   C236    1.479   .     S
C231   C232    1.394   .     A
C231   H248    1.083   .     S
C232   C233    1.398   .     A
C232   H249    1.084   .     S
C233   C234    1.401   .     A
C234   C235    1.399   .     A
C234   H250    1.084   .     S
C235   H251    1.083   .     S
C236   C237    1.405   .     A
C236   C241    1.403   .     A
C237   C238    1.398   .     A
C237   H252    1.083   .     S
C238   C239    1.405   .     A
C238   H253    1.083   .     S
C239   C240    1.406   .     A
C239   C242    1.482   .     S
C240   C241    1.394   .     A
C240   H254    1.083   .     S
C241   H255    1.084   .     S
C242   C243    1.404   .     A
C242   C247    1.408   .     A
C243   C244    1.393   .     A
C243   H256    1.083   .     S
C244   C245    1.402   .     A
C244   H257    1.083   .     S
C245   C246    1.402   .     A
C246   C247    1.398   .     A
C246   H258    1.084   .     S
C247   H259    1.083   .     S
C260   C261    1.405   .     A
C260   C265    1.408   .     A
C260   C266    1.485   .     S
C261   H278    1.083   .     S
C261   C262    1.398   1_554 A
C262   C263    1.403   .     A
C262   H279    1.083   .     S
C262   C261    1.398   1_556 A
C263   C264    1.403   .     A
C264   H280    1.083   .     S
C264   C265    1.400   1_556 A
C265   H281    1.083   .     S
C265   C264    1.400   1_554 A
C266   C267    1.405   .     A
C266   C271    1.407   .     A
C267   C268    1.399   .     A
C267   H282    1.083   .     S
C268   C269    1.405   .     A
C268   H283    1.082   .     S
C269   C270    1.404   .     A
C269   C272    1.483   .     S
C270   C271    1.397   .     A
C270   H284    1.083   .     S
C271   H285    1.083   .     S
C272   C273    1.405   .     A
C272   C277    1.406   .     A
C273   C274    1.396   .     A
C273   H286    1.083   .     S
C274   C275    1.405   .     A
C274   H287    1.083   .     S
C275   C276    1.405   .     A
C276   C277    1.401   .     A
C276   H288    1.083   .     S
C277   H289    1.084   .     S
C290   C291    1.410   .     A
C290   C295    1.404   .     A
C290   C296    1.491   .     S
C291   C292    1.407   .     A
C291   H308    1.083   .     S
C292   C293    1.404   .     A
C292   H309    1.083   .     S
C293   C294    1.404   .     A
C294   C295    1.393   .     A
C294   H310    1.084   .     S
C295   H311    1.083   .     S
C296   C297    1.407   .     A
C296   C301    1.406   .     A
C297   C298    1.398   .     A
C297   H312    1.083   .     S
C298   C299    1.405   .     A
C298   H313    1.083   .     S
C299   C300    1.410   .     A
C299   C302    1.493   .     S
C300   C301    1.404   .     A
C300   H314    1.083   .     S
C301   H315    1.083   .     S
C302   C303    1.405   .     A
C302   C307    1.410   .     A
C303   H316    1.083   .     S
C303   C304    1.399   1_455 A
C304   C305    1.405   .     A
C304   H317    1.082   .     S
C304   C303    1.399   1_655 A
C305   C306    1.404   .     A
C306   H318    1.083   .     S
C306   C307    1.403   1_655 A
C307   H319    1.083   .     S
C307   C306    1.403   1_455 A
C320   C321    1.403   .     A
C320   C325    1.404   .     A
C320   C326    1.479   .     S
C321   C322    1.400   .     A
C321   H338    1.083   .     S
C322   H339    1.083   .     S
C322   C323    1.405   1_565 A
C323   C324    1.404   .     A
C323   C322    1.405   1_545 A
C324   H340    1.083   .     S
C324   C325    1.396   1_545 A
C325   H341    1.084   .     S
C325   C324    1.396   1_565 A
C326   C331    1.407   .     A
C326   C327    1.402   1_655 A
C327   C328    1.394   .     A
C327   H342    1.083   .     S
C327   C326    1.402   1_455 A
C328   C329    1.404   .     A
C328   H343    1.084   .     S
C329   C330    1.402   .     A
C329   C332    1.475   .     S
C330   H344    1.083   .     S
C330   C331    1.401   1_455 A
C331   H345    1.083   .     S
C331   C330    1.401   1_655 A
C332   C333    1.405   .     A
C332   C337    1.401   .     A
C333   C334    1.401   .     A
C333   H346    1.083   .     S
C334   C335    1.405   .     A
C334   H347    1.083   .     S
C335   C336    1.404   .     A
C336   C337    1.394   .     A
C336   H348    1.083   .     S
C337   H349    1.083   .     S
C350   C351    1.405   .     A
C350   C355    1.408   1_455 A
C350   C356    1.487   1_455 S
C351   C352    1.395   .     A
C351   H368    1.083   .     S
C352   C353    1.404   .     A
C352   H369    1.083   .     S
C353   C354    1.405   .     A
C354   H370    1.083   .     S
C354   C355    1.403   1_455 A
C355   H371    1.083   .     S
C355   C350    1.408   1_655 A
C355   C354    1.403   1_655 A
C356   C357    1.404   .     A
C356   C350    1.487   1_655 S
C356   C361    1.407   1_655 A
C357   C358    1.400   .     A
C357   H372    1.082   .     S
C358   C359    1.408   .     A
C358   H373    1.083   .     S
C359   C360    1.404   .     A
C359   C362    1.487   .     S
C360   H374    1.083   .     S
C360   C361    1.397   1_655 A
C361   H375    1.083   .     S
C361   C356    1.407   1_455 A
C361   C360    1.397   1_455 A
C362   C363    1.408   .     A
C362   C367    1.403   .     A
C363   C364    1.403   .     A
C363   H376    1.083   .     S
C364   C365    1.406   .     A
C364   H377    1.082   .     S
C365   C366    1.408   .     A
C366   C367    1.394   .     A
C366   H378    1.083   .     S
C367   H379    1.083   .     S
C380   C381    1.402   .     A
C380   C385    1.408   .     A
C380   C386    1.480   .     S
C381   C382    1.393   .     A
C381   H398    1.083   .     S
C382   C383    1.403   .     A
C382   H399    1.082   .     S
C383   C384    1.403   .     A
C384   C385    1.401   .     A
C384   H400    1.083   .     S
C385   H401    1.083   .     S
C386   C387    1.406   .     A
C386   C391    1.404   .     A
C387   C388    1.397   .     A
C387   H402    1.083   .     S
C388   C389    1.403   .     A
C388   H403    1.083   1_554 S
C389   C390    1.405   .     A
C389   C392    1.478   .     S
C390   C391    1.397   .     A
C390   H404    1.083   .     S
C391   H405    1.084   .     S
C392   C393    1.406   .     A
C392   C397    1.403   1_554 A
C393   C394    1.399   .     A
C393   H406    1.083   .     S
C394   H407    1.083   .     S
C394   C395    1.403   1_654 A
C395   C394    1.403   1_456 A
C395   C396    1.404   1_455 A
C396   C397    1.394   .     A
C396   C395    1.404   1_655 A
C396   H408    1.083   1_655 S
C397   H409    1.083   .     S
C397   C392    1.403   1_556 A
H403   C388    1.083   1_556 S
H408   C396    1.083   1_455 S
C410   C411    1.396   .     A
C410   C415    1.403   .     A
C410   C416    1.470   .     S
C411   C412    1.391   .     A
C411   H428    1.084   .     S
C412   C413    1.410   .     A
C412   H429    1.082   .     S
C413   C414    1.408   .     A
C414   C415    1.404   .     A
C414   H430    1.083   .     S
C415   H431    1.082   .     S
C416   C417    1.398   .     A
C416   C421    1.403   .     A
C417   C418    1.397   .     A
C417   H432    1.083   .     S
C418   C419    1.410   .     A
C418   H433    1.082   .     S
C419   C420    1.404   .     A
C419   C422    1.488   .     S
C420   C421    1.398   .     A
C420   H434    1.082   .     S
C421   H435    1.083   .     S
C422   C423    1.412   .     A
C422   C427    1.403   .     A
C423   C424    1.403   .     A
C423   H436    1.082   .     S
C424   C425    1.401   .     A
C424   H437    1.084   .     S
C425   C426    1.404   .     A
C426   C427    1.393   .     A
C426   H438    1.083   .     S
C427   H439    1.083   .     S
