data_lcy+N106+E225
_audit_creation_date              2025-01-21
_audit_creation_method            'Materials Studio'
_symmetry_space_group_name_H-M    'P1'
_symmetry_Int_Tables_number       1
_symmetry_cell_setting            triclinic
loop_
_symmetry_equiv_pos_as_xyz
  x,y,z
_cell_length_a                    32.2454
_cell_length_b                    32.3112
_cell_length_c                    33.6497
_cell_angle_alpha                 99.7285
_cell_angle_beta                  97.1139
_cell_angle_gamma                 90.9604
loop_
_atom_site_label
_atom_site_type_symbol
_atom_site_fract_x
_atom_site_fract_y
_atom_site_fract_z
_atom_site_U_iso_or_equiv
_atom_site_adp_type
_atom_site_occupancy
Y0     Y     0.12226   0.63891   0.83468   0.00000  Uiso   1.00
Y1     Y     0.15456   0.57670   0.89458   0.00000  Uiso   1.00
O2     O     0.15892   0.59418   0.79531   0.00000  Uiso   1.00
O3     O     0.11477   0.56816   0.83316   0.00000  Uiso   1.00
C4     C     0.19407   0.53832   0.95301   0.00000  Uiso   1.00
O5     O     0.09104   0.54314   0.88123   0.00000  Uiso   1.00
O6     O     0.11279   0.70598   0.82893   0.00000  Uiso   1.00
O7     O     0.08634   0.66075   0.77961   0.00000  Uiso   1.00
O8     O     0.19815   0.56833   0.84530   0.00000  Uiso   1.00
O9     O     0.16370   0.64606   0.89506   0.00000  Uiso   1.00
O10    O     0.18941   0.66350   0.84461   0.00000  Uiso   1.00
O11    O     0.07349   0.64051   0.87734   0.00000  Uiso   1.00
C12    C     0.19028   0.57373   0.80799   0.00000  Uiso   1.00
O13    O     0.10917   0.61556   0.92927   0.00000  Uiso   1.00
C14    C     0.08247   0.54779   0.84621   0.00000  Uiso   1.00
O15    O     0.17621   0.51876   0.91942   0.00000  Uiso   1.00
O16    O     0.19348   0.57760   0.95521   0.00000  Uiso   1.00
C17    C     0.09290   0.69952   0.79377   0.00000  Uiso   1.00
C18    C     0.07709   0.63290   0.91374   0.00000  Uiso   1.00
C19    C     0.19824   0.65890   0.87947   0.00000  Uiso   1.00
Y20    Y     0.66234   0.84401   0.10251   0.00000  Uiso   1.00
Y21    Y     0.60019   0.91253   0.13600   0.00000  Uiso   1.00
O22    O     0.62802   0.80825   0.14079   0.00000  Uiso   1.00
O23    O     0.59149   0.84759   0.09800   0.00000  Uiso   1.00
C24    C     0.56272   0.97557   0.17954   0.00000  Uiso   1.00
O25    O     0.56091   0.89801   0.07429   0.00000  Uiso   1.00
O26    O     0.72571   0.82546   0.08662   0.00000  Uiso   1.00
O27    O     0.67512   0.78343   0.06175   0.00000  Uiso   1.00
O28    O     0.59652   0.86207   0.17561   0.00000  Uiso   1.00
O29    O     0.67010   0.90788   0.14245   0.00000  Uiso   1.00
O30    O     0.69618   0.85576   0.16675   0.00000  Uiso   1.00
O31    O     0.65675   0.88925   0.05805   0.00000  Uiso   1.00
C32    C     0.60770   0.82360   0.17007   0.00000  Uiso   1.00
O33    O     0.63754   0.94642   0.09817   0.00000  Uiso   1.00
C34    C     0.56719   0.86086   0.06643   0.00000  Uiso   1.00
O35    O     0.54880   0.95854   0.14376   0.00000  Uiso   1.00
O36    O     0.59506   0.95868   0.19341   0.00000  Uiso   1.00
C37    C     0.71406   0.79087   0.06437   0.00000  Uiso   1.00
C38    C     0.65128   0.92885   0.06552   0.00000  Uiso   1.00
C39    C     0.68878   0.89250   0.17562   0.00000  Uiso   1.00
Y40    Y     0.83011   0.09792   0.67301   0.00000  Uiso   1.00
Y41    Y     0.88408   0.12381   0.60616   0.00000  Uiso   1.00
O42    O     0.78308   0.12755   0.63362   0.00000  Uiso   1.00
O43    O     0.82985   0.07846   0.60491   0.00000  Uiso   1.00
C44    C     0.94330   0.16803   0.57927   0.00000  Uiso   1.00
O45    O     0.85419   0.08284   0.54883   0.00000  Uiso   1.00
O46    O     0.81468   0.09855   0.73652   0.00000  Uiso   1.00
O47    O     0.78017   0.05614   0.68947   0.00000  Uiso   1.00
O48    O     0.82656   0.16458   0.60400   0.00000  Uiso   1.00
O49    O     0.89132   0.13314   0.67458   0.00000  Uiso   1.00
O50    O     0.84201   0.16715   0.70000   0.00000  Uiso   1.00
O51    O     0.87743   0.04759   0.66869   0.00000  Uiso   1.00
C52    C     0.78984   0.15598   0.61271   0.00000  Uiso   1.00
O53    O     0.91916   0.06937   0.62640   0.00000  Uiso   1.00
C54    C     0.82796   0.06507   0.56347   0.00000  Uiso   1.00
O55    O     0.93592   0.12910   0.56779   0.00000  Uiso   1.00
O56    O     0.91905   0.18429   0.60372   0.00000  Uiso   1.00
C57    C     0.78562   0.07082   0.72702   0.00000  Uiso   1.00
C58    C     0.90878   0.04316   0.64856   0.00000  Uiso   1.00
C59    C     0.87745   0.17086   0.69246   0.00000  Uiso   1.00
Y60    Y     0.41557   0.43449   0.37756   0.00000  Uiso   1.00
Y61    Y     0.35496   0.36649   0.40079   0.00000  Uiso   1.00
O62    O     0.46065   0.40360   0.41796   0.00000  Uiso   1.00
O63    O     0.41257   0.36304   0.36906   0.00000  Uiso   1.00
C64    C     0.30239   0.32324   0.43659   0.00000  Uiso   1.00
O65    O     0.35733   0.32823   0.33831   0.00000  Uiso   1.00
O66    O     0.43305   0.49916   0.36736   0.00000  Uiso   1.00
O67    O     0.46587   0.44878   0.34007   0.00000  Uiso   1.00
O68    O     0.41454   0.36849   0.44660   0.00000  Uiso   1.00
O69    O     0.35737   0.43707   0.40823   0.00000  Uiso   1.00
O70    O     0.41246   0.46868   0.44211   0.00000  Uiso   1.00
O71    O     0.36230   0.42363   0.32637   0.00000  Uiso   1.00
C72    C     0.45207   0.38180   0.44460   0.00000  Uiso   1.00
O73    O     0.31200   0.39629   0.35611   0.00000  Uiso   1.00
C74    C     0.39300   0.33764   0.33461   0.00000  Uiso   1.00
O75    O     0.32434   0.30616   0.41031   0.00000  Uiso   1.00
O76    O     0.30842   0.36257   0.44490   0.00000  Uiso   1.00
C77    C     0.46095   0.48790   0.34512   0.00000  Uiso   1.00
C78    C     0.32417   0.41215   0.32685   0.00000  Uiso   1.00
C79    C     0.37644   0.45904   0.44442   0.00000  Uiso   1.00
C80    C     0.54424   0.83255   0.03153   0.00000  Uiso   1.00
C81    C     0.52260   0.84887  -0.00084   0.00000  Uiso   1.00
C82    C     0.49381   0.82337  -0.02946   0.00000  Uiso   1.00
C83    C     0.48544   0.78168  -0.02555   0.00000  Uiso   1.00
C84    C     0.50985   0.76434   0.00479   0.00000  Uiso   1.00
C85    C     0.53897   0.78970   0.03317   0.00000  Uiso   1.00
C86    C     0.42674   0.73348   0.96531   0.00000  Uiso   1.00
H87    H     0.26998   0.65972   0.84574   0.00000  Uiso   1.00
H88    H     0.34098   0.67311   0.88016   0.00000  Uiso   1.00
H89    H     0.29454   0.68757   0.99639   0.00000  Uiso   1.00
H90    H     0.22288   0.67166   0.96154   0.00000  Uiso   1.00
H91    H     0.38099   0.72760   0.91525   0.00000  Uiso   1.00
O92    O     0.36293   0.69508   0.96280   0.00000  Uiso   1.00
O93    O     0.45259   0.75903   0.94793   0.00000  Uiso   1.00
C94    C     0.24096   0.66609   0.90110   0.00000  Uiso   1.00
C95    C     0.27489   0.66630   0.87868   0.00000  Uiso   1.00
C96    C     0.31555   0.67455   0.89845   0.00000  Uiso   1.00
C97    C     0.32291   0.68421   0.94122   0.00000  Uiso   1.00
C98    C     0.28923   0.68165   0.96349   0.00000  Uiso   1.00
C99    C     0.24848   0.67262   0.94365   0.00000  Uiso   1.00
C100   C     0.39002   0.71867   0.94473   0.00000  Uiso   1.00
H101   H     0.47630   0.83675  -0.05349   0.00000  Uiso   1.00
H102   H     0.50564   0.73162   0.00728   0.00000  Uiso   1.00
H103   H     0.52661   0.88173  -0.00303   0.00000  Uiso   1.00
H104   H     0.43453   0.72733  -0.00391   0.00000  Uiso   1.00
H105   H     0.55558   0.77631   0.05767   0.00000  Uiso   1.00
C106   C     0.41479   0.31735   0.30101   0.00000  Uiso   1.00
C107   C     0.45868   0.31864   0.30556   0.00000  Uiso   1.00
C108   C     0.47981   0.29108   0.27912   0.00000  Uiso   1.00
C109   C     0.45719   0.26236   0.24770   0.00000  Uiso   1.00
C110   C     0.41360   0.26380   0.24075   0.00000  Uiso   1.00
C111   C     0.39239   0.29107   0.26737   0.00000  Uiso   1.00
C112   C     0.48395   0.19678   0.25056   0.00000  Uiso   1.00
H113   H     0.49861   0.02049   0.15107   0.00000  Uiso   1.00
H114   H     0.47422   0.08714   0.18459   0.00000  Uiso   1.00
H115   H     0.56193   0.08201   0.29103   0.00000  Uiso   1.00
H116   H     0.58669   1.01501   0.25757   0.00000  Uiso   1.00
H117   H     0.50816   0.15643   0.20444   0.00000  Uiso   1.00
O118   O     0.50594   0.12933   0.25935   0.00000  Uiso   1.00
O119   O     0.47718   0.22878   0.22720   0.00000  Uiso   1.00
C120   C     0.54487   1.01299   0.20158   0.00000  Uiso   1.00
C121   C     0.51264   0.03354   0.18165   0.00000  Uiso   1.00
C122   C     0.49911   0.07188   0.20054   0.00000  Uiso   1.00
C123   C     0.51790   0.09043   0.23964   0.00000  Uiso   1.00
C124   C     0.54817   0.06864   0.26044   0.00000  Uiso   1.00
C125   C     0.56201   1.03042   0.24144   0.00000  Uiso   1.00
C126   C     0.49975   0.16068   0.23516   0.00000  Uiso   1.00
H127   H     0.51354   0.28999   0.28469   0.00000  Uiso   1.00
H128   H     0.39603   0.24164   0.21652   0.00000  Uiso   1.00
H129   H     0.47659   0.33858   0.33129   0.00000  Uiso   1.00
H130   H     0.47571   0.20053   0.28140   0.00000  Uiso   1.00
H131   H     0.35851   0.28968   0.26317   0.00000  Uiso   1.00
C132   C     0.75307   0.17893   0.59858   0.00000  Uiso   1.00
C133   C     0.75667   0.21998   0.59046   0.00000  Uiso   1.00
C134   C     0.72064   0.24224   0.58138   0.00000  Uiso   1.00
C135   C     0.68045   0.22321   0.57947   0.00000  Uiso   1.00
C136   C     0.67729   0.18211   0.58679   0.00000  Uiso   1.00
C137   C     0.71294   0.16014   0.59605   0.00000  Uiso   1.00
C138   C     0.64101   0.27639   0.55080   0.00000  Uiso   1.00
H139   H     0.46181   0.30904   0.47591   0.00000  Uiso   1.00
H140   H     0.52696   0.28455   0.50780   0.00000  Uiso   1.00
H141   H     0.58918   0.40299   0.50485   0.00000  Uiso   1.00
H142   H     0.52431   0.42711   0.47198   0.00000  Uiso   1.00
H143   H     0.57927   0.28849   0.56084   0.00000  Uiso   1.00
O144   O     0.60307   0.32870   0.52240   0.00000  Uiso   1.00
O145   O     0.64287   0.24426   0.57414   0.00000  Uiso   1.00
C146   C     0.48792   0.37009   0.47181   0.00000  Uiso   1.00
C147   C     0.48900   0.33037   0.48351   0.00000  Uiso   1.00
C148   C     0.52644   0.31643   0.50191   0.00000  Uiso   1.00
C149   C     0.56319   0.34254   0.50967   0.00000  Uiso   1.00
C150   C     0.56124   0.38273   0.49958   0.00000  Uiso   1.00
C151   C     0.52416   0.39643   0.48090   0.00000  Uiso   1.00
C152   C     0.60547   0.29663   0.54581   0.00000  Uiso   1.00
H153   H     0.72443   0.27459   0.57754   0.00000  Uiso   1.00
H154   H     0.64676   0.16721   0.58591   0.00000  Uiso   1.00
H155   H     0.78718   0.23543   0.59287   0.00000  Uiso   1.00
H156   H     0.66692   0.28400   0.53519   0.00000  Uiso   1.00
H157   H     0.70900   0.12850   0.60202   0.00000  Uiso   1.00
C158   C     0.76060   0.05768   0.75680   0.00000  Uiso   1.00
C159   C     0.76002   0.08355   0.79467   0.00000  Uiso   1.00
C160   C     0.73638   0.07154   0.82317   0.00000  Uiso   1.00
C161   C     0.71405   0.03246   0.81483   0.00000  Uiso   1.00
C162   C     0.71376   1.00737   0.77652   0.00000  Uiso   1.00
C163   C     0.73675   0.01981   0.74764   0.00000  Uiso   1.00
C164   C     0.70468   1.03033   0.88412   0.00000  Uiso   1.00
H165   H     0.66816   0.90156   0.98819   0.00000  Uiso   1.00
H166   H     0.68856   0.94378   0.93975   0.00000  Uiso   1.00
H167   H     0.67976   0.05681   0.02641   0.00000  Uiso   1.00
H168   H     0.65903   1.01463   0.07545   0.00000  Uiso   1.00
H169   H     0.65635   0.99611   0.90152   0.00000  Uiso   1.00
O170   O     0.69855   1.02892   0.95309   0.00000  Uiso   1.00
O171   O     0.69036   1.01807   0.84254   0.00000  Uiso   1.00
C172   C     0.66189   0.95477   0.03566   0.00000  Uiso   1.00
C173   C     0.67008   0.93545   0.99689   0.00000  Uiso   1.00
C174   C     0.68129   0.95960   0.96893   0.00000  Uiso   1.00
C175   C     0.68434   1.00372   0.97914   0.00000  Uiso   1.00
C176   C     0.67663   1.02296   0.01787   0.00000  Uiso   1.00
C177   C     0.66492   0.99884   0.04577   0.00000  Uiso   1.00
C178   C     0.68415   1.01657   0.91161   0.00000  Uiso   1.00
H179   H     0.73529   0.09315   0.85128   0.00000  Uiso   1.00
H180   H     0.69597   0.97775   0.76927   0.00000  Uiso   1.00
H181   H     0.77730   0.11349   0.80197   0.00000  Uiso   1.00
H182   H     0.73335   0.04917   0.89481   0.00000  Uiso   1.00
H183   H     0.73637   0.99959   0.71844   0.00000  Uiso   1.00
C184   C     0.79798   0.03381   0.53830   0.00000  Uiso   1.00
C185   C     0.75479   0.03918   0.53730   0.00000  Uiso   1.00
C186   C     0.72701   0.01552   0.50607   0.00000  Uiso   1.00
C187   C     0.74226   0.98646   0.47596   0.00000  Uiso   1.00
C188   C     0.78511   0.97857   0.47930   0.00000  Uiso   1.00
C189   C     0.81281   0.00250   0.50998   0.00000  Uiso   1.00
C190   C     0.72444   0.98530   0.40676   0.00000  Uiso   1.00
H191   H     0.71240   0.86212   0.24516   0.00000  Uiso   1.00
H192   H     0.72422   0.90132   0.31448   0.00000  Uiso   1.00
H193   H     0.69477   1.01614   0.26957   0.00000  Uiso   1.00
H194   H     0.68349   0.97680   0.19966   0.00000  Uiso   1.00
H195   H     0.68787   0.93941   0.36501   0.00000  Uiso   1.00
O196   O     0.71700   0.98618   0.33640   0.00000  Uiso   1.00
O197   O     0.71583   0.96852   0.44092   0.00000  Uiso   1.00
C198   C     0.69727   0.91658   0.21719   0.00000  Uiso   1.00
C199   C     0.70853   0.89577   0.25013   0.00000  Uiso   1.00
C200   C     0.71452   0.91810   0.28987   0.00000  Uiso   1.00
C201   C     0.70887   0.96175   0.29737   0.00000  Uiso   1.00
C202   C     0.69839   0.98247   0.26435   0.00000  Uiso   1.00
C203   C     0.69224   0.96010   0.22458   0.00000  Uiso   1.00
C204   C     0.70812   0.96748   0.36933   0.00000  Uiso   1.00
H205   H     0.69397   0.02174   0.50374   0.00000  Uiso   1.00
H206   H     0.79709   0.95559   0.45667   0.00000  Uiso   1.00
H207   H     0.74295   0.06371   0.55858   0.00000  Uiso   1.00
H208   H     0.74499   0.01316   0.41024   0.00000  Uiso   1.00
H209   H     0.84609  -0.00204   0.51046   0.00000  Uiso   1.00
C210   C     0.35516   0.47120   0.48070   0.00000  Uiso   1.00
C211   C     0.37783   0.48665   0.51888   0.00000  Uiso   1.00
C212   C     0.35691   0.49910   0.55277   0.00000  Uiso   1.00
C213   C     0.31288   0.49627   0.54880   0.00000  Uiso   1.00
C214   C     0.29049   0.48091   0.51068   0.00000  Uiso   1.00
C215   C     0.31134   0.46795   0.47700   0.00000  Uiso   1.00
C216   C     0.30523   0.50512   0.61960   0.00000  Uiso   1.00
H217   H     0.16798   0.54549   0.72780   0.00000  Uiso   1.00
H218   H     0.21267   0.51857   0.67712   0.00000  Uiso   1.00
H219   H     0.32021   0.53675   0.76919   0.00000  Uiso   1.00
H220   H     0.27444   0.56181   0.82105   0.00000  Uiso   1.00
H221   H     0.26206   0.54507   0.64508   0.00000  Uiso   1.00
O222   O     0.29804   0.51435   0.69019   0.00000  Uiso   1.00
O223   O     0.29019   0.51247   0.58055   0.00000  Uiso   1.00
C224   C     0.21789   0.55599   0.77819   0.00000  Uiso   1.00
C225   C     0.20119   0.54379   0.73725   0.00000  Uiso   1.00
C226   C     0.22700   0.52902   0.70808   0.00000  Uiso   1.00
C227   C     0.27058   0.52775   0.71893   0.00000  Uiso   1.00
C228   C     0.28698   0.53848   0.76010   0.00000  Uiso   1.00
C229   C     0.26089   0.55250   0.78960   0.00000  Uiso   1.00
C230   C     0.28647   0.52323   0.65089   0.00000  Uiso   1.00
H231   H     0.37493   0.51210   0.58164   0.00000  Uiso   1.00
H232   H     0.25662   0.47925   0.50708   0.00000  Uiso   1.00
H233   H     0.41168   0.48937   0.52241   0.00000  Uiso   1.00
H234   H     0.32999   0.48339   0.62447   0.00000  Uiso   1.00
H235   H     0.29314   0.45629   0.44786   0.00000  Uiso   1.00
C236   C     0.21170   0.51771   0.98693   0.00000  Uiso   1.00
C237   C     0.22033   0.54101   0.02648   0.00000  Uiso   1.00
C238   C     0.23403   0.52103   0.05925   0.00000  Uiso   1.00
C239   C     0.23968   0.47748   0.05287   0.00000  Uiso   1.00
C240   C     0.23257   0.45460   1.01329   0.00000  Uiso   1.00
C241   C     0.21802   0.47435   0.98060   0.00000  Uiso   1.00
C242   C     0.23456   0.46343   0.11909   0.00000  Uiso   1.00
H243   H     0.32029   0.36949   0.25050   0.00000  Uiso   1.00
H244   H     0.27929   0.38595   0.18955   0.00000  Uiso   1.00
H245   H     0.22251   0.48649   0.26305   0.00000  Uiso   1.00
H246   H     0.26214   0.46800   0.32469   0.00000  Uiso   1.00
H247   H     0.28192   0.43669   0.15276   0.00000  Uiso   1.00
O248   O     0.22975   0.45427   0.18711   0.00000  Uiso   1.00
O249   O     0.25573   0.45695   0.08464   0.00000  Uiso   1.00
C250   C     0.29420   0.41765   0.29187   0.00000  Uiso   1.00
C251   C     0.29847   0.39463   0.25351   0.00000  Uiso   1.00
C252   C     0.27577   0.40482   0.21862   0.00000  Uiso   1.00
C253   C     0.24981   0.43965   0.22147   0.00000  Uiso   1.00
C254   C     0.24338   0.46055   0.26017   0.00000  Uiso   1.00
C255   C     0.26556   0.44979   0.29524   0.00000  Uiso   1.00
C256   C     0.25115   0.44991   0.15269   0.00000  Uiso   1.00
H257   H     0.24079   0.53950   0.08945   0.00000  Uiso   1.00
H258   H     0.23786   0.42124   1.00793   0.00000  Uiso   1.00
H259   H     0.21595   0.57457   0.03212   0.00000  Uiso   1.00
H260   H     0.20445   0.47817   0.11850   0.00000  Uiso   1.00
H261   H     0.21183   0.45578   0.95038   0.00000  Uiso   1.00
C262   C     0.27202   0.30006   0.45479   0.00000  Uiso   1.00
C263   C     0.25126   0.32099   0.48620   0.00000  Uiso   1.00
C264   C     0.22070   0.29972   0.50190   0.00000  Uiso   1.00
C265   C     0.20989   0.25721   0.48594   0.00000  Uiso   1.00
C266   C     0.23186   0.23598   0.45581   0.00000  Uiso   1.00
C267   C     0.26250   0.25722   0.44009   0.00000  Uiso   1.00
C268   C     0.14305   0.25629   0.50910   0.00000  Uiso   1.00
H269   H     0.99517   0.13900   0.52371   0.00000  Uiso   1.00
H270   H     0.05230   0.17759   0.50309   0.00000  Uiso   1.00
H271   H     0.02635   0.28851   0.58572   0.00000  Uiso   1.00
H272   H     0.96830   0.25005   0.60602   0.00000  Uiso   1.00
H273   H     0.11840   0.20656   0.53230   0.00000  Uiso   1.00
O274   O     0.07707   0.25933   0.53318   0.00000  Uiso   1.00
O275   O     0.17919   0.23460   0.50056   0.00000  Uiso   1.00
C276   C     0.97731   0.19162   0.56635   0.00000  Uiso   1.00
C277   C     1.00168   0.17161   0.53751   0.00000  Uiso   1.00
C278   C     0.03477   0.19352   0.52616   0.00000  Uiso   1.00
C279   C     0.04462   0.23574   0.54414   0.00000  Uiso   1.00
C280   C     0.01964   0.25587   0.57218   0.00000  Uiso   1.00
C281   C     0.98648   0.23399   0.58353   0.00000  Uiso   1.00
C282   C     0.11341   0.23781   0.52508   0.00000  Uiso   1.00
H283   H     0.20566   0.31641   0.52656   0.00000  Uiso   1.00
H284   H     0.22452   0.20306   0.44388   0.00000  Uiso   1.00
H285   H     0.25857   0.35385   0.49853   0.00000  Uiso   1.00
H286   H     0.13793   0.28745   0.50169   0.00000  Uiso   1.00
H287   H     0.27819   0.24033   0.41599   0.00000  Uiso   1.00
C288   C     0.93232   0.00449   0.64907   0.00000  Uiso   1.00
C289   C     0.94021  -0.01239   0.68494   0.00000  Uiso   1.00
C290   C     0.95768   0.94823   0.68417   0.00000  Uiso   1.00
C291   C     0.96697   0.92477   0.64732   0.00000  Uiso   1.00
C292   C     0.95893   0.94156   0.61156   0.00000  Uiso   1.00
C293   C     0.94246   0.98144   0.61248   0.00000  Uiso   1.00
C294   C     1.01459   0.87915   0.67440   0.00000  Uiso   1.00
H295   H     1.04563   0.69702   0.71897   0.00000  Uiso   1.00
H296   H     1.03006   0.75648   0.68378   0.00000  Uiso   1.00
H297   H     0.09816   0.84046   0.78506   0.00000  Uiso   1.00
H298   H     0.11424   0.78136   0.81977   0.00000  Uiso   1.00
H299   H     1.00188   0.81501   0.67151   0.00000  Uiso   1.00
O300   O     0.05678   0.83974   0.71452   0.00000  Uiso   1.00
O301   O     0.98082   0.88359   0.64512   0.00000  Uiso   1.00
C302   C     0.08066   0.73459   0.77228   0.00000  Uiso   1.00
C303   C     0.05668   0.72833   0.73379   0.00000  Uiso   1.00
C304   C     0.04748   0.76261   0.71385   0.00000  Uiso   1.00
C305   C     0.06220   0.80364   0.73250   0.00000  Uiso   1.00
C306   C     0.08615   0.80932   0.77062   0.00000  Uiso   1.00
C307   C     0.09515   0.77547   0.79040   0.00000  Uiso   1.00
C308   C     1.02271   0.84179   0.68481   0.00000  Uiso   1.00
H309   H     0.96270   0.93541   0.71202   0.00000  Uiso   1.00
H310   H     0.96513   0.92348   0.58289   0.00000  Uiso   1.00
H311   H     0.93225   0.00461   0.71342   0.00000  Uiso   1.00
H312   H     0.03440   0.90634   0.68946   0.00000  Uiso   1.00
H313   H     0.93575  -0.00663   0.58425   0.00000  Uiso   1.00
C314   C     0.04631   0.52591   0.81932   0.00000  Uiso   1.00
C315   C     0.01812   0.50136   0.83513   0.00000  Uiso   1.00
C316   C    -0.01063   0.47339   0.80902   0.00000  Uiso   1.00
C317   C    -0.01167   0.46963   0.76678   0.00000  Uiso   1.00
C318   C     0.01428   0.49618   0.75092   0.00000  Uiso   1.00
C319   C     0.04329   0.52411   0.77705   0.00000  Uiso   1.00
C320   C    -0.02004   0.39778   0.74255   0.00000  Uiso   1.00
H321   H     0.85143   0.24924   0.72005   0.00000  Uiso   1.00
H322   H     0.89285   0.31525   0.73498   0.00000  Uiso   1.00
H323   H     1.00093   0.24918   0.69907   0.00000  Uiso   1.00
H324   H     0.95960   0.18258   0.68505   0.00000  Uiso   1.00
H325   H     0.92719   0.36510   0.70803   0.00000  Uiso   1.00
O326   O     0.97617   0.32388   0.72662   0.00000  Uiso   1.00
O327   O    -0.03622   0.43762   0.74070   0.00000  Uiso   1.00
C328   C     0.90233   0.21089   0.70129   0.00000  Uiso   1.00
C329   C     0.88398   0.24888   0.71515   0.00000  Uiso   1.00
C330   C     0.90758   0.28680   0.72305   0.00000  Uiso   1.00
C331   C     0.94997   0.28739   0.71666   0.00000  Uiso   1.00
C332   C     0.96820   0.24935   0.70334   0.00000  Uiso   1.00
C333   C     0.94466   0.21145   0.69555   0.00000  Uiso   1.00
C334   C     0.95803   0.36282   0.72452   0.00000  Uiso   1.00
H335   H    -0.03076   0.45317   0.82154   0.00000  Uiso   1.00
H336   H     0.01364   0.49346   0.71834   0.00000  Uiso   1.00
H337   H     0.01985   0.50207   0.86759   0.00000  Uiso   1.00
H338   H     0.01081   0.39469   0.75889   0.00000  Uiso   1.00
H339   H     0.06489   0.54248   0.76416   0.00000  Uiso   1.00
C340   C     0.74338   0.76292   0.04367   0.00000  Uiso   1.00
C341   C     0.73003   0.72339   0.02097   0.00000  Uiso   1.00
C342   C     0.75863   0.69734   0.00183   0.00000  Uiso   1.00
C343   C     0.80092   0.71010   0.00552   0.00000  Uiso   1.00
C344   C     0.81385   0.75038   0.02717   0.00000  Uiso   1.00
C345   C     0.78545   0.77622   0.04638   0.00000  Uiso   1.00
C346   C     0.86953   0.68402   1.00558   0.00000  Uiso   1.00
H347   H     0.00602   0.67290   0.89241   0.00000  Uiso   1.00
H348   H     0.94781   0.68899   0.93130   0.00000  Uiso   1.00
H349   H     1.01020   0.63287   1.02870   0.00000  Uiso   1.00
H350   H     0.06949   0.61737   0.99016   0.00000  Uiso   1.00
H351   H     0.89351   0.65427   0.95362   0.00000  Uiso   1.00
O352   O     0.94119   0.66938   1.00635   0.00000  Uiso   1.00
O353   O     0.82858   0.68333  -0.01462   0.00000  Uiso   1.00
C354   C     0.04236   0.64371   0.93810   0.00000  Uiso   1.00
C355   C     0.00739   0.66381   0.92207   0.00000  Uiso   1.00
C356   C    -0.02634   0.67246   0.94411   0.00000  Uiso   1.00
C357   C     0.97382   0.66040   0.98245   0.00000  Uiso   1.00
C358   C     1.00916   0.64145   0.99887   0.00000  Uiso   1.00
C359   C     0.04303   0.63287   0.97691   0.00000  Uiso   1.00
C360   C     0.90047   0.66815   0.98559   0.00000  Uiso   1.00
H361   H     0.74796   0.66688  -0.01551   0.00000  Uiso   1.00
H362   H     0.84579   0.76209   0.02895   0.00000  Uiso   1.00
H363   H     0.69765   0.71261   0.01821   0.00000  Uiso   1.00
H364   H     0.87668   0.69742   1.03767   0.00000  Uiso   1.00
H365   H     0.79643   0.80683   0.06320   0.00000  Uiso   1.00
C366   C     0.59658   0.79545   0.19784   0.00000  Uiso   1.00
C367   C     0.61352   0.75543   0.19553   0.00000  Uiso   1.00
C368   C     0.60314   0.72831   0.22119   0.00000  Uiso   1.00
C369   C     0.57467   0.74021   0.24919   0.00000  Uiso   1.00
C370   C     0.55900   0.78067   0.25260   0.00000  Uiso   1.00
C371   C     0.56964   0.80807   0.22706   0.00000  Uiso   1.00
C372   C     0.55827   0.67069   0.25891   0.00000  Uiso   1.00
H373   H     0.45198   0.57196   0.35193   0.00000  Uiso   1.00
H374   H     0.48592   0.62051   0.31719   0.00000  Uiso   1.00
H375   H     0.55610   0.51955   0.26053   0.00000  Uiso   1.00
H376   H     0.52082   0.47014   0.29467   0.00000  Uiso   1.00
H377   H     0.54834   0.65408   0.31444   0.00000  Uiso   1.00
O378   O     0.54451   0.60023   0.26520   0.00000  Uiso   1.00
O379   O     0.56300   0.71372   0.27539   0.00000  Uiso   1.00
C380   C     0.48411   0.51744   0.32626   0.00000  Uiso   1.00
C381   C     0.47517   0.56022   0.33258   0.00000  Uiso   1.00
C382   C     0.49510   0.58818   0.31307   0.00000  Uiso   1.00
C383   C     0.52526   0.57398   0.28745   0.00000  Uiso   1.00
C384   C     0.53389   0.53118   0.28100   0.00000  Uiso   1.00
C385   C     0.51374   0.50310   0.30039   0.00000  Uiso   1.00
C386   C     0.55002   0.64303   0.28233   0.00000  Uiso   1.00
H387   H     0.61769   0.69823   0.21931   0.00000  Uiso   1.00
H388   H     0.53797   0.79072   0.27476   0.00000  Uiso   1.00
H389   H     0.63516   0.74505   0.17404   0.00000  Uiso   1.00
H390   H     0.55944   0.65928   0.22677   0.00000  Uiso   1.00
H391   H     0.55654   0.83892   0.22999   0.00000  Uiso   1.00
loop_
_geom_bond_atom_site_label_1
_geom_bond_atom_site_label_2
_geom_bond_distance
_geom_bond_site_symmetry_2
_ccdc_geom_bond_type
Y0     O2      2.245   .     S
Y0     O3      2.286   .     S
Y0     O6      2.231   .     S
Y0     O7      2.283   .     S
Y0     O9      2.264   .     S
Y0     O10     2.259   .     S
Y0     O11     2.252   .     S
Y1     O3      2.265   .     S
Y1     O5      2.260   .     S
Y1     O8      2.288   .     S
Y1     O9      2.253   .     S
Y1     O13     2.252   .     S
Y1     O15     2.263   .     S
Y1     O16     2.255   .     S
O2     C12     1.285   .     A
O3     C14     1.378   .     S
C4     O15     1.263   .     A
C4     O16     1.260   .     A
C4     C236    1.476   .     S
O5     C14     1.212   .     D
O6     C17     1.257   .     A
O7     C17     1.267   .     A
O8     C12     1.291   .     A
O9     C19     1.375   .     S
O10    C19     1.207   .     D
O11    C18     1.281   .     A
C12    C224    1.474   .     S
O13    C18     1.281   .     A
C14    C314    1.474   .     S
C17    C302    1.478   .     S
C18    C354    1.480   .     S
C19    C94     1.472   .     S
Y20    O22     2.243   .     S
Y20    O23     2.277   .     S
Y20    O26     2.241   .     S
Y20    O27     2.268   .     S
Y20    O29     2.256   .     S
Y20    O30     2.266   .     S
Y20    O31     2.256   .     S
Y21    O23     2.259   .     S
Y21    O25     2.266   .     S
Y21    O28     2.284   .     S
Y21    O29     2.248   .     S
Y21    O33     2.253   .     S
Y21    O35     2.255   .     S
Y21    O36     2.258   .     S
O22    C32     1.285   .     A
O23    C34     1.373   .     S
C24    O35     1.260   .     A
C24    O36     1.260   .     A
C24    C120    1.473   .     S
O25    C34     1.211   .     D
O26    C37     1.259   .     A
O27    C37     1.264   .     A
O28    C32     1.289   .     A
O29    C39     1.373   .     S
O30    C39     1.209   .     D
O31    C38     1.281   .     A
C32    C366    1.479   .     S
O33    C38     1.282   .     A
C34    C80     1.471   .     S
C37    C340    1.474   .     S
C38    C172    1.479   .     S
C39    C198    1.472   .     S
Y40    O42     2.225   .     S
Y40    O43     2.270   .     S
Y40    O46     2.250   .     S
Y40    O47     2.263   .     S
Y40    O49     2.252   .     S
Y40    O50     2.275   .     S
Y40    O51     2.248   .     S
Y41    O43     2.254   .     S
Y41    O45     2.244   .     S
Y41    O48     2.294   .     S
Y41    O49     2.253   .     S
Y41    O53     2.262   .     S
Y41    O55     2.256   .     S
Y41    O56     2.258   .     S
O42    C52     1.279   .     A
O43    C54     1.382   .     S
C44    O55     1.261   .     A
C44    O56     1.261   .     A
C44    C276    1.475   .     S
O45    C54     1.212   .     D
O46    C57     1.259   .     A
O47    C57     1.262   .     A
O48    C52     1.291   .     A
O49    C59     1.373   .     S
O50    C59     1.209   .     D
O51    C58     1.282   .     A
C52    C132    1.480   .     S
O53    C58     1.285   .     A
C54    C184    1.465   .     S
C57    C158    1.472   .     S
C58    C288    1.474   .     S
C59    C328    1.477   .     S
Y60    O62     2.230   .     S
Y60    O63     2.277   .     S
Y60    O66     2.248   .     S
Y60    O67     2.261   .     S
Y60    O69     2.247   .     S
Y60    O70     2.279   .     S
Y60    O71     2.255   .     S
Y61    O63     2.250   .     S
Y61    O65     2.262   .     S
Y61    O68     2.302   .     S
Y61    O69     2.251   .     S
Y61    O73     2.264   .     S
Y61    O75     2.259   .     S
Y61    O76     2.254   .     S
O62    C72     1.282   .     A
O63    C74     1.377   .     S
C64    O75     1.261   .     A
C64    O76     1.260   .     A
C64    C262    1.474   .     S
O65    C74     1.212   .     D
O66    C77     1.260   .     A
O67    C77     1.262   .     A
O68    C72     1.291   .     A
O69    C79     1.369   .     S
O70    C79     1.212   .     D
O71    C78     1.281   .     A
C72    C146    1.479   .     S
O73    C78     1.283   .     A
C74    C106    1.471   .     S
C77    C380    1.473   .     S
C78    C250    1.465   .     S
C79    C210    1.473   .     S
C80    C81     1.404   .     A
C80    C85     1.403   .     A
C81    C82     1.397   .     A
C81    H103    1.083   .     S
C82    C83     1.400   .     A
C82    H101    1.083   .     S
C83    C84     1.409   .     A
C83    O93     1.405   1_554 S
C84    C85     1.397   .     A
C84    H102    1.082   .     S
C85    H105    1.083   .     S
C86    O93     1.407   .     S
C86    C100    1.333   .     D
C86    H104    1.087   1_556 S
H87    C95     1.084   .     S
H88    C96     1.082   .     S
H89    C98     1.083   .     S
H90    C99     1.083   .     S
H91    C100    1.086   .     S
O92    C97     1.408   .     S
O92    C100    1.407   .     S
O93    C83     1.405   1_556 S
C94    C95     1.404   .     A
C94    C99     1.401   .     A
C95    C96     1.395   .     A
C96    C97     1.409   .     A
C97    C98     1.403   .     A
C98    C99     1.401   .     A
H104   C86     1.087   1_554 S
C106   C107    1.404   .     A
C106   C111    1.406   .     A
C107   C108    1.397   .     A
C107   H129    1.083   .     S
C108   C109    1.402   .     A
C108   H127    1.083   .     S
C109   C110    1.399   .     A
C109   O119    1.396   .     S
C110   C111    1.397   .     A
C110   H128    1.083   .     S
C111   H131    1.083   .     S
C112   O119    1.405   .     S
C112   C126    1.330   .     D
C112   H130    1.091   .     S
H113   C121    1.083   .     S
H114   C122    1.083   .     S
H115   C124    1.083   .     S
H116   C125    1.083   .     S
H117   C126    1.088   .     S
O118   C123    1.402   .     S
O118   C126    1.405   .     S
C120   C125    1.405   .     A
C120   C121    1.404   1_565 A
C121   C122    1.396   .     A
C121   C120    1.404   1_545 A
C122   C123    1.407   .     A
C123   C124    1.400   .     A
C124   C125    1.398   1_545 A
C125   C124    1.398   1_565 A
C132   C133    1.405   .     A
C132   C137    1.407   .     A
C133   C134    1.405   .     A
C133   H155    1.083   .     S
C134   C135    1.415   .     A
C134   H153    1.081   .     S
C135   C136    1.395   .     A
C135   O145    1.407   .     S
C136   C137    1.391   .     A
C136   H154    1.083   .     S
C137   H157    1.083   .     S
C138   O145    1.401   .     S
C138   C152    1.336   .     D
C138   H156    1.086   .     S
H139   C147    1.083   .     S
H140   C148    1.081   .     S
H141   C150    1.083   .     S
H142   C151    1.083   .     S
H143   C152    1.087   .     S
O144   C149    1.409   .     S
O144   C152    1.402   .     S
C146   C147    1.404   .     A
C146   C151    1.405   .     A
C147   C148    1.404   .     A
C148   C149    1.414   .     A
C149   C150    1.397   .     A
C150   C151    1.395   .     A
C158   C159    1.403   .     A
C158   C163    1.402   .     A
C159   C160    1.396   .     A
C159   H181    1.083   .     S
C160   C161    1.411   .     A
C160   H179    1.081   .     S
C161   C162    1.401   1_545 A
C161   O171    1.407   1_545 S
C162   H180    1.083   .     S
C162   C161    1.401   1_565 A
C162   C163    1.399   1_565 A
C163   C162    1.399   1_545 A
C163   H183    1.083   1_545 S
C164   O171    1.405   .     S
C164   C178    1.331   .     D
C164   H182    1.086   1_565 S
H165   C173    1.083   .     S
H166   C174    1.083   .     S
H167   C176    1.083   1_545 S
H168   C177    1.083   .     S
H169   C178    1.088   .     S
O170   C175    1.403   .     S
O170   C178    1.403   .     S
O171   C161    1.407   1_565 S
C172   C177    1.406   .     A
C172   C173    1.406   1_554 A
C173   C174    1.396   .     A
C173   C172    1.406   1_556 A
C174   C175    1.408   .     A
C175   C176    1.399   1_556 A
C176   C177    1.399   .     A
C176   H167    1.083   1_565 S
C176   C175    1.399   1_554 A
H182   C164    1.086   1_545 S
H183   C163    1.083   1_565 S
C184   C185    1.403   .     A
C184   C189    1.401   .     A
C185   C186    1.401   .     A
C185   H207    1.083   .     S
C186   H205    1.083   .     S
C186   C187    1.403   1_545 A
C187   C188    1.403   .     A
C187   O197    1.399   .     S
C187   C186    1.403   1_565 A
C188   H206    1.083   .     S
C188   C189    1.393   1_565 A
C189   H209    1.084   .     S
C189   C188    1.393   1_545 A
C190   O197    1.406   .     S
C190   C204    1.333   .     D
C190   H208    1.090   1_565 S
H191   C199    1.083   .     S
H192   C200    1.082   .     S
H193   C202    1.083   .     S
H194   C203    1.083   .     S
H195   C204    1.087   .     S
O196   C201    1.405   .     S
O196   C204    1.405   .     S
C198   C199    1.405   .     A
C198   C203    1.402   .     A
C199   C200    1.397   .     A
C200   C201    1.409   .     A
C201   C202    1.401   .     A
C202   C203    1.398   .     A
H208   C190    1.090   1_545 S
C210   C211    1.405   .     A
C210   C215    1.404   .     A
C211   C212    1.401   .     A
C211   H233    1.083   .     S
C212   C213    1.409   .     A
C212   H231    1.082   .     S
C213   C214    1.399   .     A
C213   O223    1.403   .     S
C214   C215    1.396   .     A
C214   H232    1.083   .     S
C215   H235    1.083   .     S
C216   O223    1.403   .     S
C216   C230    1.334   .     D
C216   H234    1.087   .     S
H217   C225    1.083   .     S
H218   C226    1.082   .     S
H219   C228    1.082   .     S
H220   C229    1.084   .     S
H221   C230    1.088   .     S
O222   C227    1.410   .     S
O222   C230    1.407   .     S
C224   C225    1.403   .     A
C224   C229    1.404   .     A
C225   C226    1.393   .     A
C226   C227    1.410   .     A
C227   C228    1.403   .     A
C228   C229    1.402   .     A
C236   C241    1.404   .     A
C236   C237    1.406   1_556 A
C237   C238    1.399   .     A
C237   H259    1.084   .     S
C237   C236    1.406   1_554 A
C238   C239    1.406   .     A
C238   H257    1.083   .     S
C239   O249    1.402   .     S
C239   C240    1.400   1_554 A
C240   C241    1.399   .     A
C240   H258    1.082   .     S
C240   C239    1.400   1_556 A
C241   H261    1.083   .     S
C242   O249    1.404   .     S
C242   C256    1.334   .     D
C242   H260    1.088   .     S
H243   C251    1.084   .     S
H244   C252    1.081   .     S
H245   C254    1.083   .     S
H246   C255    1.083   .     S
H247   C256    1.086   .     S
O248   C253    1.410   .     S
O248   C256    1.409   .     S
C250   C251    1.400   .     A
C250   C255    1.401   .     A
C251   C252    1.396   .     A
C252   C253    1.411   .     A
C253   C254    1.403   .     A
C254   C255    1.401   .     A
C262   C263    1.404   .     A
C262   C267    1.404   .     A
C263   C264    1.397   .     A
C263   H285    1.083   .     S
C264   C265    1.409   .     A
C264   H283    1.082   .     S
C265   C266    1.400   .     A
C265   O275    1.405   .     S
C266   C267    1.398   .     A
C266   H284    1.083   .     S
C267   H287    1.083   .     S
C268   O275    1.405   .     S
C268   C282    1.332   .     D
C268   H286    1.088   .     S
H269   C277    1.083   .     S
H270   C278    1.082   .     S
H271   C280    1.083   .     S
H272   C281    1.083   .     S
H273   C282    1.088   .     S
O274   C279    1.406   .     S
O274   C282    1.405   .     S
C276   C277    1.404   .     A
C276   C281    1.404   .     A
C277   C278    1.397   1_655 A
C278   C279    1.409   .     A
C278   C277    1.397   1_455 A
C279   C280    1.400   .     A
C280   C281    1.398   1_455 A
C281   C280    1.398   1_655 A
C288   C289    1.404   .     A
C288   C293    1.406   1_545 A
C289   H311    1.083   .     S
C289   C290    1.398   1_545 A
C290   C291    1.408   .     A
C290   H309    1.083   .     S
C290   C289    1.398   1_565 A
C291   C292    1.399   .     A
C291   O301    1.404   .     S
C292   C293    1.399   .     A
C292   H310    1.083   .     S
C293   C288    1.406   1_565 A
C293   H313    1.083   1_565 S
C294   O301    1.402   .     S
C294   C308    1.334   .     D
C294   H312    1.089   1_655 S
H295   C303    1.083   1_655 S
H296   C304    1.080   1_655 S
H297   C306    1.083   .     S
H298   C307    1.083   .     S
H299   C308    1.084   .     S
O300   C305    1.406   .     S
O300   C308    1.401   1_455 S
C302   C303    1.405   .     A
C302   C307    1.404   .     A
C303   C304    1.407   .     A
C303   H295    1.083   1_455 S
C304   C305    1.414   .     A
C304   H296    1.080   1_455 S
C305   C306    1.395   .     A
C306   C307    1.390   .     A
C308   O300    1.401   1_655 S
H312   C294    1.089   1_455 S
H313   C293    1.083   1_545 S
C314   C315    1.406   .     A
C314   C319    1.405   .     A
C315   C316    1.396   .     A
C315   H337    1.083   .     S
C316   C317    1.402   .     A
C316   H335    1.083   .     S
C317   C318    1.401   .     A
C317   O327    1.400   .     S
C318   C319    1.401   .     A
C318   H336    1.082   .     S
C319   H339    1.083   .     S
C320   O327    1.405   .     S
C320   H338    1.090   .     S
C320   C334    1.334   1_455 D
H321   C329    1.082   .     S
H322   C330    1.081   .     S
H323   C332    1.083   .     S
H324   C333    1.083   .     S
H325   C334    1.087   .     S
O326   C331    1.407   .     S
O326   C334    1.405   .     S
C328   C329    1.405   .     A
C328   C333    1.402   .     A
C329   C330    1.400   .     A
C330   C331    1.410   .     A
C331   C332    1.400   .     A
C332   C333    1.398   .     A
C334   C320    1.334   1_655 D
C340   C341    1.404   .     A
C340   C345    1.404   .     A
C341   C342    1.401   .     A
C341   H363    1.083   .     S
C342   C343    1.402   .     A
C342   H361    1.083   .     S
C343   C344    1.409   .     A
C343   O353    1.407   .     S
C344   C345    1.394   .     A
C344   H362    1.082   .     S
C345   H365    1.083   .     S
C346   C360    1.333   .     D
C346   H364    1.088   .     S
C346   O353    1.406   1_556 S
H347   C355    1.083   .     S
H348   C356    1.081   1_655 S
H349   C358    1.082   .     S
H350   C359    1.083   .     S
H351   C360    1.087   .     S
O352   C357    1.407   .     S
O352   C360    1.406   .     S
O353   C346    1.406   1_554 S
C354   C355    1.406   .     A
C354   C359    1.406   .     A
C355   C356    1.397   .     A
C356   H348    1.081   1_455 S
C356   C357    1.409   1_455 A
C357   C358    1.400   .     A
C357   C356    1.409   1_655 A
C358   C359    1.399   1_655 A
C359   C358    1.399   1_455 A
C366   C367    1.406   .     A
C366   C371    1.406   .     A
C367   C368    1.394   .     A
C367   H389    1.083   .     S
C368   C369    1.408   .     A
C368   H387    1.082   .     S
C369   C370    1.401   .     A
C369   O379    1.406   .     S
C370   C371    1.400   .     A
C370   H388    1.083   .     S
C371   H391    1.083   .     S
C372   O379    1.406   .     S
C372   C386    1.331   .     D
C372   H390    1.087   .     S
H373   C381    1.083   .     S
H374   C382    1.082   .     S
H375   C384    1.083   .     S
H376   C385    1.083   .     S
H377   C386    1.087   .     S
O378   C383    1.406   .     S
O378   C386    1.405   .     S
C380   C381    1.403   .     A
C380   C385    1.403   .     A
C381   C382    1.395   .     A
C382   C383    1.410   .     A
C383   C384    1.401   .     A
C384   C385    1.399   .     A
