data_lcy+N248+E225
_audit_creation_date              2025-01-21
_audit_creation_method            'Materials Studio'
_symmetry_space_group_name_H-M    'P1'
_symmetry_Int_Tables_number       1
_symmetry_cell_setting            triclinic
loop_
_symmetry_equiv_pos_as_xyz
  x,y,z
_cell_length_a                    32.5710
_cell_length_b                    31.4767
_cell_length_c                    32.3716
_cell_angle_alpha                 88.1566
_cell_angle_beta                  88.1878
_cell_angle_gamma                 88.0202
loop_
_atom_site_label
_atom_site_type_symbol
_atom_site_fract_x
_atom_site_fract_y
_atom_site_fract_z
_atom_site_U_iso_or_equiv
_atom_site_adp_type
_atom_site_occupancy
O0     O     0.14740   0.66031   0.93812   0.00000  Uiso   1.00
Yb1    Yb    0.15821   0.60039   0.84985   0.00000  Uiso   1.00
C2     C     0.20503   0.58964   0.78731   0.00000  Uiso   1.00
Yb3    Yb    0.09751   0.62236   0.91642   0.00000  Uiso   1.00
O4     O     0.19474   0.64371   0.88520   0.00000  Uiso   1.00
C5     C     0.08509   0.67810   0.85912   0.00000  Uiso   1.00
C6     C     0.18337   0.66405   0.91897   0.00000  Uiso   1.00
O7     O     0.04954   0.66719   0.93310   0.00000  Uiso   1.00
C8     C     0.03838   0.64471   0.96492   0.00000  Uiso   1.00
O9     O     0.20261   0.58582   0.89829   0.00000  Uiso   1.00
O10    O     0.13980   0.56865   0.90864   0.00000  Uiso   1.00
O11    O     0.10733   0.56727   0.82751   0.00000  Uiso   1.00
O12    O     0.06123   0.61155   0.97219   0.00000  Uiso   1.00
O13    O     0.05982   0.58293   0.87970   0.00000  Uiso   1.00
C14    C     0.17895   0.56883   0.92306   0.00000  Uiso   1.00
C15    C     0.07182   0.56300   0.84649   0.00000  Uiso   1.00
O16    O     0.20241   0.56120   0.81649   0.00000  Uiso   1.00
O17    O     0.18402   0.62387   0.79353   0.00000  Uiso   1.00
O18    O     0.06219   0.67633   0.88989   0.00000  Uiso   1.00
O19    O     0.11995   0.65258   0.86412   0.00000  Uiso   1.00
O20    O     0.68114   0.93957   0.09708   0.00000  Uiso   1.00
Yb21   Yb    0.59125   0.88663   0.09403   0.00000  Uiso   1.00
C22    C     0.54106   0.86181   0.04285   0.00000  Uiso   1.00
Yb23   Yb    0.65238   0.91179   0.15308   0.00000  Uiso   1.00
O24    O     0.62932   0.92475   0.05305   0.00000  Uiso   1.00
C25    C     0.57887   0.94128   0.17133   0.00000  Uiso   1.00
C26    C     0.66423   0.94153   0.06089   0.00000  Uiso   1.00
O27    O     0.67520   0.95566   0.19485   0.00000  Uiso   1.00
C28    C     0.70237   0.92829   0.20751   0.00000  Uiso   1.00
O29    O     0.62399   0.83429   0.06167   0.00000  Uiso   1.00
O30    O     0.64200   0.85776   0.11980   0.00000  Uiso   1.00
O31    O     0.56670   0.84918   0.14567   0.00000  Uiso   1.00
O32    O     0.70449   0.89351   0.18806   0.00000  Uiso   1.00
O33    O     0.61463   0.86722   0.19300   0.00000  Uiso   1.00
C34    C     0.65249   0.83486   0.08536   0.00000  Uiso   1.00
C35    C     0.58380   0.84450   0.18162   0.00000  Uiso   1.00
O36    O     0.57439   0.84057   0.05069   0.00000  Uiso   1.00
O37    O     0.53669   0.89731   0.06072   0.00000  Uiso   1.00
O38    O     0.60034   0.92166   0.19640   0.00000  Uiso   1.00
O39    O     0.59609   0.94157   0.13179   0.00000  Uiso   1.00
O40    O     0.93211   0.14849   0.68973   0.00000  Uiso   1.00
Yb41   Yb    0.84433   0.15386   0.63457   0.00000  Uiso   1.00
C42    C     0.79075   0.20799   0.61086   0.00000  Uiso   1.00
Yb43   Yb    0.91007   0.09333   0.66008   0.00000  Uiso   1.00
O44    O     0.87692   0.19364   0.67486   0.00000  Uiso   1.00
C45    C     0.83821   0.06782   0.68269   0.00000  Uiso   1.00
C46    C     0.91236   0.18524   0.69147   0.00000  Uiso   1.00
O47    O     0.93497   0.04829   0.70319   0.00000  Uiso   1.00
C48    C     0.96606   0.04059   0.67907   0.00000  Uiso   1.00
O49    O     0.87507   0.19345   0.58604   0.00000  Uiso   1.00
O50    O     0.89870   0.13256   0.60846   0.00000  Uiso   1.00
O51    O     0.82699   0.10411   0.59438   0.00000  Uiso   1.00
O52    O     0.96722   0.06246   0.64504   0.00000  Uiso   1.00
O53    O     0.87960   0.05597   0.61218   0.00000  Uiso   1.00
C54    C     0.90621   0.17047   0.58801   0.00000  Uiso   1.00
C55    C     0.84935   0.06950   0.58826   0.00000  Uiso   1.00
O56    O     0.82526   0.20275   0.59114   0.00000  Uiso   1.00
O57    O     0.78646   0.18524   0.64397   0.00000  Uiso   1.00
O58    O     0.86328   0.04548   0.66331   0.00000  Uiso   1.00
O59    O     0.85046   0.10916   0.68623   0.00000  Uiso   1.00
O60    O     0.39448   0.31121   0.41196   0.00000  Uiso   1.00
Yb61   Yb    0.40993   0.39155   0.34282   0.00000  Uiso   1.00
C62    C     0.46397   0.44358   0.31843   0.00000  Uiso   1.00
Yb63   Yb    0.34633   0.33757   0.37236   0.00000  Uiso   1.00
O64    O     0.44583   0.35465   0.38633   0.00000  Uiso   1.00
C65    C     0.33714   0.39695   0.42440   0.00000  Uiso   1.00
C66    C     0.43232   0.32415   0.41087   0.00000  Uiso   1.00
O67    O     0.29570   0.32805   0.41493   0.00000  Uiso   1.00
C68    C     0.28616   0.29355   0.39810   0.00000  Uiso   1.00
O69    O     0.44260   0.36309   0.29099   0.00000  Uiso   1.00
O70    O     0.39160   0.33071   0.32404   0.00000  Uiso   1.00
O71    O     0.36263   0.41760   0.30360   0.00000  Uiso   1.00
O72    O     0.31074   0.28156   0.36879   0.00000  Uiso   1.00
O73    O     0.31054   0.37511   0.32804   0.00000  Uiso   1.00
C74    C     0.42261   0.33055   0.29345   0.00000  Uiso   1.00
C75    C     0.32508   0.40494   0.30350   0.00000  Uiso   1.00
O76    O     0.45994   0.40827   0.30030   0.00000  Uiso   1.00
O77    O     0.43978   0.44930   0.34955   0.00000  Uiso   1.00
O78    O     0.31411   0.36679   0.42396   0.00000  Uiso   1.00
O79    O     0.36703   0.39695   0.39277   0.00000  Uiso   1.00
C80    C     0.50860   0.84563   1.01737   0.00000  Uiso   1.00
C81    C     0.46965   0.86631   0.01732   0.00000  Uiso   1.00
C82    C     0.43717   0.84881   0.99730   0.00000  Uiso   1.00
C83    C     0.44308   0.81018   0.97699   0.00000  Uiso   1.00
C84    C     0.48239   0.79069   0.97518   0.00000  Uiso   1.00
C85    C     0.51486   0.80789   0.99570   0.00000  Uiso   1.00
C86    C     0.37391   0.78857   0.97988   0.00000  Uiso   1.00
H87    H     0.26613   0.65653   0.90756   0.00000  Uiso   1.00
H88    H     0.31837   0.69878   0.93628   0.00000  Uiso   1.00
H89    H     0.22458   0.77414   0.99985   0.00000  Uiso   1.00
H90    H     0.17149   0.72985   0.97238   0.00000  Uiso   1.00
H91    H     0.34396   0.76484   0.93009   0.00000  Uiso   1.00
O92    O     0.30459   0.76723   0.98577   0.00000  Uiso   1.00
O93    O     0.41106   0.79153   0.95682   0.00000  Uiso   1.00
C94    C     0.21457   0.69043   0.93700   0.00000  Uiso   1.00
C95    C     0.25642   0.68245   0.92722   0.00000  Uiso   1.00
C96    C     0.28647   0.70712   0.94331   0.00000  Uiso   1.00
C97    C     0.27532   0.74149   0.96866   0.00000  Uiso   1.00
C98    C     0.23366   0.74860   0.97949   0.00000  Uiso   1.00
C99    C     0.20346   0.72333   0.96389   0.00000  Uiso   1.00
C100   C     0.34134   0.77287   0.96249   0.00000  Uiso   1.00
H101   H     0.40739   0.86521  -0.00218   0.00000  Uiso   1.00
H102   H     0.48748   0.76139   0.95885   0.00000  Uiso   1.00
H103   H     0.46397   0.89550   0.03371   0.00000  Uiso   1.00
H104   H     0.37170   0.79687   1.01227   0.00000  Uiso   1.00
H105   H     0.54458   0.79138   0.99516   0.00000  Uiso   1.00
C106   C     0.43228   0.29251   0.26910   0.00000  Uiso   1.00
C107   C     0.41693   0.25330   0.28309   0.00000  Uiso   1.00
C108   C     0.42900   0.21578   0.26358   0.00000  Uiso   1.00
C109   C     0.45581   0.21685   0.22846   0.00000  Uiso   1.00
C110   C     0.47045   0.25629   0.21418   0.00000  Uiso   1.00
C111   C     0.45905   0.29380   0.23436   0.00000  Uiso   1.00
C112   C     0.45340   0.14085   0.21747   0.00000  Uiso   1.00
H113   H     0.53428  -0.00661   0.12043   0.00000  Uiso   1.00
H114   H     0.48266   0.04798   0.14065   0.00000  Uiso   1.00
H115   H     0.48951   0.00446   0.26770   0.00000  Uiso   1.00
H116   H     0.54172   0.94970   0.24789   0.00000  Uiso   1.00
H117   H     0.50508   0.10742   0.19435   0.00000  Uiso   1.00
O118   O     0.45789   0.06511   0.21833   0.00000  Uiso   1.00
O119   O     0.47169   0.18015   0.20879   0.00000  Uiso   1.00
C120   C     0.54205   0.96744   0.18267   0.00000  Uiso   1.00
C121   C     0.52419  -0.00523   0.15258   0.00000  Uiso   1.00
C122   C     0.49510   0.02620   0.16403   0.00000  Uiso   1.00
C123   C     0.48348   0.03085   0.20581   0.00000  Uiso   1.00
C124   C     0.49879   0.00154   0.23548   0.00000  Uiso   1.00
C125   C     0.52828   0.97026   0.22411   0.00000  Uiso   1.00
C126   C     0.47433   0.10502   0.20823   0.00000  Uiso   1.00
H127   H     0.41837   0.18631   0.27736   0.00000  Uiso   1.00
H128   H     0.49170   0.25775   0.18779   0.00000  Uiso   1.00
H129   H     0.39685   0.25129   0.31035   0.00000  Uiso   1.00
H130   H     0.42256   0.13863   0.23082   0.00000  Uiso   1.00
H131   H     0.47160   0.32361   0.22324   0.00000  Uiso   1.00
C132   C     0.75728   0.23635   0.59565   0.00000  Uiso   1.00
C133   C     0.71999   0.23975   0.61852   0.00000  Uiso   1.00
C134   C     0.68620   0.26180   0.60190   0.00000  Uiso   1.00
C135   C     0.68900   0.28038   0.56188   0.00000  Uiso   1.00
C136   C     0.72692   0.27946   0.54024   0.00000  Uiso   1.00
C137   C     0.76085   0.25733   0.55684   0.00000  Uiso   1.00
C138   C     0.61896   0.27633   0.54587   0.00000  Uiso   1.00
H139   H     0.51490   0.31720   0.39865   0.00000  Uiso   1.00
H140   H     0.56596   0.29333   0.44829   0.00000  Uiso   1.00
H141   H     0.46961   0.26220   0.53735   0.00000  Uiso   1.00
H142   H     0.41766   0.28585   0.48705   0.00000  Uiso   1.00
H143   H     0.58561   0.32236   0.51198   0.00000  Uiso   1.00
O144   O     0.55014   0.26633   0.52767   0.00000  Uiso   1.00
O145   O     0.65480   0.30000   0.54304   0.00000  Uiso   1.00
C146   C     0.46233   0.30423   0.43937   0.00000  Uiso   1.00
C147   C     0.50448   0.30539   0.42886   0.00000  Uiso   1.00
C148   C     0.53373   0.29215   0.45740   0.00000  Uiso   1.00
C149   C     0.52145   0.27813   0.49749   0.00000  Uiso   1.00
C150   C     0.47945   0.27415   0.50704   0.00000  Uiso   1.00
C151   C     0.44996   0.28729   0.47828   0.00000  Uiso   1.00
C152   C     0.58519   0.29121   0.52754   0.00000  Uiso   1.00
H153   H     0.65758   0.26362   0.61980   0.00000  Uiso   1.00
H154   H     0.72967   0.29441   0.50973   0.00000  Uiso   1.00
H155   H     0.71653   0.22430   0.64876   0.00000  Uiso   1.00
H156   H     0.61872   0.24480   0.56067   0.00000  Uiso   1.00
H157   H     0.78937   0.25536   0.53875   0.00000  Uiso   1.00
C158   C     0.80285   0.05106   0.70666   0.00000  Uiso   1.00
C159   C     0.78006   0.07840   0.73286   0.00000  Uiso   1.00
C160   C     0.75499   0.06181   0.76478   0.00000  Uiso   1.00
C161   C     0.75222   0.01759   0.77078   0.00000  Uiso   1.00
C162   C     0.77142  -0.00946   0.74198   0.00000  Uiso   1.00
C163   C     0.79694   0.00711   0.71024   0.00000  Uiso   1.00
C164   C     0.74486   0.01445   0.84347   0.00000  Uiso   1.00
H165   H     0.74673   0.95516   0.04814   0.00000  Uiso   1.00
H166   H     0.78018   0.98535   0.98493   0.00000  Uiso   1.00
H167   H     0.66181   0.00755   0.93113   0.00000  Uiso   1.00
H168   H     0.62837   0.97829  -0.00641   0.00000  Uiso   1.00
H169   H     0.70478  -0.02395   0.87821   0.00000  Uiso   1.00
O170   O     0.74414   0.01200   0.91667   0.00000  Uiso   1.00
O171   O     0.73162  -0.00010   0.80561   0.00000  Uiso   1.00
C172   C     0.68502   0.96354   0.02544   0.00000  Uiso   1.00
C173   C     0.72795   0.96680   0.02292   0.00000  Uiso   1.00
C174   C     0.74702   0.98359   0.98685   0.00000  Uiso   1.00
C175   C     0.72375  -0.00341   0.95271   0.00000  Uiso   1.00
C176   C     0.68067  -0.00436   0.95618   0.00000  Uiso   1.00
C177   C     0.66162   0.97914  -0.00791   0.00000  Uiso   1.00
C178   C     0.72865  -0.00068   0.87907   0.00000  Uiso   1.00
H179   H     0.73931   0.08325   0.78600   0.00000  Uiso   1.00
H180   H     0.76879  -0.04355   0.74584   0.00000  Uiso   1.00
H181   H     0.78375   0.11247   0.73051   0.00000  Uiso   1.00
H182   H     0.76942   0.03695   0.84456   0.00000  Uiso   1.00
H183   H     0.81412  -0.01457   0.69034   0.00000  Uiso   1.00
C184   C     0.84416   0.04838   0.54911   0.00000  Uiso   1.00
C185   C     0.80971   0.02460   0.54132   0.00000  Uiso   1.00
C186   C     0.80259   0.01231   0.50081   0.00000  Uiso   1.00
C187   C     0.82947   0.02473   0.46784   0.00000  Uiso   1.00
C188   C     0.86384   0.04793   0.47624   0.00000  Uiso   1.00
C189   C     0.87143   0.05919   0.51645   0.00000  Uiso   1.00
C190   C     0.80405  -0.01789   0.41450   0.00000  Uiso   1.00
H191   H     0.69958  -0.00345   0.25769   0.00000  Uiso   1.00
H192   H     0.73149   0.00134   0.32465   0.00000  Uiso   1.00
H193   H     0.79125   0.87843   0.30860   0.00000  Uiso   1.00
H194   H     0.75904   0.87325   0.24159   0.00000  Uiso   1.00
H195   H     0.79766   0.00545   0.35382   0.00000  Uiso   1.00
O196   O     0.78022   0.93962   0.36138   0.00000  Uiso   1.00
O197   O     0.82056   0.02032   0.42607   0.00000  Uiso   1.00
C198   C     0.72705   0.93467   0.24425   0.00000  Uiso   1.00
C199   C     0.72042  -0.02893   0.26789   0.00000  Uiso   1.00
C200   C     0.73882  -0.02611   0.30617   0.00000  Uiso   1.00
C201   C     0.76462   0.94040   0.32130   0.00000  Uiso   1.00
C202   C     0.77189   0.90463   0.29721   0.00000  Uiso   1.00
C203   C     0.75364   0.90186   0.25892   0.00000  Uiso   1.00
C204   C     0.79375  -0.02160   0.37518   0.00000  Uiso   1.00
H205   H     0.77516   0.99528   0.49500   0.00000  Uiso   1.00
H206   H     0.88414   0.05858   0.45115   0.00000  Uiso   1.00
H207   H     0.78779   1.01687   0.56605   0.00000  Uiso   1.00
H208   H     0.80127   0.95516   0.43614   0.00000  Uiso   1.00
H209   H     0.89732   0.07884   0.52168   0.00000  Uiso   1.00
C210   C     0.33578   0.42719   0.45802   0.00000  Uiso   1.00
C211   C     0.30229   0.42857   0.48635   0.00000  Uiso   1.00
C212   C     0.30365   0.45294   0.52153   0.00000  Uiso   1.00
C213   C     0.33874   0.47611   0.52900   0.00000  Uiso   1.00
C214   C     0.37191   0.47499   0.50049   0.00000  Uiso   1.00
C215   C     0.37030   0.45123   0.46491   0.00000  Uiso   1.00
C216   C     0.30913   0.52328   0.57754   0.00000  Uiso   1.00
H217   H     0.24696   0.51780   0.76002   0.00000  Uiso   1.00
H218   H     0.27609   0.50677   0.69019   0.00000  Uiso   1.00
H219   H     0.24265   0.63629   0.65520   0.00000  Uiso   1.00
H220   H     0.21375   0.64760   0.72455   0.00000  Uiso   1.00
H221   H     0.32712   0.52638   0.63896   0.00000  Uiso   1.00
O222   O     0.27243   0.56547   0.62567   0.00000  Uiso   1.00
O223   O     0.34287   0.49694   0.56617   0.00000  Uiso   1.00
C224   C     0.22831   0.58362   0.74785   0.00000  Uiso   1.00
C225   C     0.24699   0.54423   0.73777   0.00000  Uiso   1.00
C226   C     0.26383   0.53802   0.69787   0.00000  Uiso   1.00
C227   C     0.26226   0.57132   0.66762   0.00000  Uiso   1.00
C228   C     0.24467   0.61067   0.67827   0.00000  Uiso   1.00
C229   C     0.22819   0.61696   0.71791   0.00000  Uiso   1.00
C230   C     0.30488   0.53679   0.61608   0.00000  Uiso   1.00
H231   H     0.27813   0.45238   0.54377   0.00000  Uiso   1.00
H232   H     0.39933   0.49210   0.50629   0.00000  Uiso   1.00
H233   H     0.27565   0.40968   0.48196   0.00000  Uiso   1.00
H234   H     0.28642   0.53358   0.55502   0.00000  Uiso   1.00
H235   H     0.39679   0.44999   0.44384   0.00000  Uiso   1.00
C236   C     0.19136   0.54827   0.96242   0.00000  Uiso   1.00
C237   C     0.16184   0.53931  -0.00619   0.00000  Uiso   1.00
C238   C     0.17321   0.51659   0.02978   0.00000  Uiso   1.00
C239   C     0.21409   0.50206   0.03446   0.00000  Uiso   1.00
C240   C     0.24342   0.51083   1.00309   0.00000  Uiso   1.00
C241   C     0.23236   0.53449   0.96765   0.00000  Uiso   1.00
C242   C     0.21879   0.49249   0.10690   0.00000  Uiso   1.00
H243   H     0.33638   0.40003   0.22151   0.00000  Uiso   1.00
H244   H     0.29628   0.43497   0.16769   0.00000  Uiso   1.00
H245   H     0.21372   0.48956   0.26036   0.00000  Uiso   1.00
H246   H     0.25544   0.45469   0.31490   0.00000  Uiso   1.00
H247   H     0.23554   0.43484   0.13607   0.00000  Uiso   1.00
O248   O     0.22653   0.48569   0.17972   0.00000  Uiso   1.00
O249   O     0.22519   0.47513   0.06777   0.00000  Uiso   1.00
C250   C     0.29843   0.42435   0.27199   0.00000  Uiso   1.00
C251   C     0.30940   0.41920   0.23028   0.00000  Uiso   1.00
C252   C     0.28587   0.43879   0.19944   0.00000  Uiso   1.00
C253   C     0.25030   0.46370   0.20976   0.00000  Uiso   1.00
C254   C     0.24002   0.46943   0.25171   0.00000  Uiso   1.00
C255   C     0.26364   0.44955   0.28271   0.00000  Uiso   1.00
C256   C     0.22719   0.46820   0.14028   0.00000  Uiso   1.00
H257   H     0.15007   0.50893   0.05336   0.00000  Uiso   1.00
H258   H     0.27481   0.49885   1.00598   0.00000  Uiso   1.00
H259   H     0.12994   0.54930  -0.00975   0.00000  Uiso   1.00
H260   H     0.21007   0.52592   0.11035   0.00000  Uiso   1.00
H261   H     0.25547   0.54049   0.94355   0.00000  Uiso   1.00
C262   C     0.24810   0.27165   0.41047   0.00000  Uiso   1.00
C263   C     0.22216   0.28881   0.44162   0.00000  Uiso   1.00
C264   C     0.18388   0.27185   0.45080   0.00000  Uiso   1.00
C265   C     0.17087   0.23655   0.42960   0.00000  Uiso   1.00
C266   C     0.19675   0.21935   0.39851   0.00000  Uiso   1.00
C267   C     0.23525   0.23649   0.38916   0.00000  Uiso   1.00
C268   C     0.11766   0.21922   0.47842   0.00000  Uiso   1.00
H269   H     0.92693   0.22807   0.52514   0.00000  Uiso   1.00
H270   H    -0.00271   0.24398   0.49961   0.00000  Uiso   1.00
H271   H     0.04713   0.15258   0.58787   0.00000  Uiso   1.00
H272   H     0.97781   0.13625   0.61282   0.00000  Uiso   1.00
H273   H     0.05724   0.20417   0.46507   0.00000  Uiso   1.00
O274   O     0.06765   0.20880   0.53096   0.00000  Uiso   1.00
O275   O     0.13172   0.21970   0.43693   0.00000  Uiso   1.00
C276   C     0.94711   0.18042   0.57045   0.00000  Uiso   1.00
C277   C     0.95299   0.21101   0.53846   0.00000  Uiso   1.00
C278   C     0.99294   0.21976   0.52369   0.00000  Uiso   1.00
C279   C     0.02715   0.19824   0.54121   0.00000  Uiso   1.00
C280   C     0.02100   0.16848   0.57346   0.00000  Uiso   1.00
C281   C     0.98144   0.15918   0.58753   0.00000  Uiso   1.00
C282   C     0.07882   0.21074   0.48882   0.00000  Uiso   1.00
H283   H     0.16407   0.28707   0.47380   0.00000  Uiso   1.00
H284   H     0.18690   0.19268   0.38142   0.00000  Uiso   1.00
H285   H     0.23090   0.31631   0.45815   0.00000  Uiso   1.00
H286   H     0.13852   0.22463   0.50317   0.00000  Uiso   1.00
H287   H     0.25444   0.22294   0.36468   0.00000  Uiso   1.00
C288   C     0.99744   0.00744   0.68905   0.00000  Uiso   1.00
C289   C     0.99001   0.97768   0.72141   0.00000  Uiso   1.00
C290   C     1.01755   0.94341   0.72808   0.00000  Uiso   1.00
C291   C     0.05302   0.93858   0.70258   0.00000  Uiso   1.00
C292   C     0.06173   0.96957   0.67195   0.00000  Uiso   1.00
C293   C     0.03386   1.00359   0.66482   0.00000  Uiso   1.00
C294   C     0.06098   0.86458   0.70424   0.00000  Uiso   1.00
H295   H     0.13943   0.70209   0.79741   0.00000  Uiso   1.00
H296   H     0.12569   0.75200   0.73871   0.00000  Uiso   1.00
H297   H     0.99973   0.76739   0.78123   0.00000  Uiso   1.00
H298   H     0.01325   0.71873   0.84039   0.00000  Uiso   1.00
H299   H     0.10086   0.83283   0.74492   0.00000  Uiso   1.00
O300   O     0.05314   0.79251   0.72398   0.00000  Uiso   1.00
O301   O     0.08005   0.90348   0.70795   0.00000  Uiso   1.00
C302   C     0.07739   0.70694   0.82337   0.00000  Uiso   1.00
C303   C     0.10888   0.71624   0.79418   0.00000  Uiso   1.00
C304   C     0.10120   0.74466   0.76093   0.00000  Uiso   1.00
C305   C     0.06185   0.76364   0.75649   0.00000  Uiso   1.00
C306   C     0.03024   0.75326   0.78480   0.00000  Uiso   1.00
C307   C     0.03804   0.72564   0.81839   0.00000  Uiso   1.00
C308   C     0.07488   0.83011   0.72497   0.00000  Uiso   1.00
H309   H     1.01114   0.92030   0.75275   0.00000  Uiso   1.00
H310   H     0.08947   0.96652   0.65280   0.00000  Uiso   1.00
H311   H     0.96235   0.98017   0.74079   0.00000  Uiso   1.00
H312   H     1.03342   0.86262   0.68627   0.00000  Uiso   1.00
H313   H     0.04048   0.02646   0.64002   0.00000  Uiso   1.00
C314   C     0.04570   0.53004   0.83141   0.00000  Uiso   1.00
C315   C     0.06457   0.49116   0.82039   0.00000  Uiso   1.00
C316   C     0.04116   0.45756   0.80909   0.00000  Uiso   1.00
C317   C    -0.00193   0.46260   0.80686   0.00000  Uiso   1.00
C318   C     0.97920   0.50136   0.81849   0.00000  Uiso   1.00
C319   C     0.00274   0.53481   0.83112   0.00000  Uiso   1.00
C320   C    -0.00875   0.39693   0.77264   0.00000  Uiso   1.00
H321   H     0.87969   0.26481   0.70481   0.00000  Uiso   1.00
H322   H     0.91461   0.32594   0.72859   0.00000  Uiso   1.00
H323   H     1.02451   0.24833   0.74681   0.00000  Uiso   1.00
H324   H     0.98983   0.18642   0.72233   0.00000  Uiso   1.00
H325   H     0.94469   0.35430   0.78741   0.00000  Uiso   1.00
O326   O     0.99487   0.32660   0.74997   0.00000  Uiso   1.00
O327   O     0.97279   0.42935   0.79643   0.00000  Uiso   1.00
C328   C     0.93187   0.22055   0.71176   0.00000  Uiso   1.00
C329   C     0.91099   0.26028   0.71480   0.00000  Uiso   1.00
C330   C     0.93088   0.29537   0.72882   0.00000  Uiso   1.00
C331   C     0.97206   0.29134   0.74063   0.00000  Uiso   1.00
C332   C     0.99259   0.25164   0.73849   0.00000  Uiso   1.00
C333   C     0.97270   0.21640   0.72456   0.00000  Uiso   1.00
C334   C     0.97380   0.35946   0.77092   0.00000  Uiso   1.00
H335   H     0.05708   0.42754   0.80324   0.00000  Uiso   1.00
H336   H     0.94608   0.50544   0.81799   0.00000  Uiso   1.00
H337   H     0.09756   0.48612   0.82222   0.00000  Uiso   1.00
H338   H     0.01985   0.40156   0.75515   0.00000  Uiso   1.00
H339   H     0.98752   0.56426   0.84045   0.00000  Uiso   1.00
C340   C     0.69307   0.81298   0.07968   0.00000  Uiso   1.00
C341   C     0.70443   0.79213   0.04306   0.00000  Uiso   1.00
C342   C     0.74488   0.77601   0.03694   0.00000  Uiso   1.00
C343   C     0.77413   0.78062   0.06739   0.00000  Uiso   1.00
C344   C     0.76251   0.80086   0.10387   0.00000  Uiso   1.00
C345   C     0.72227   0.81631   0.11023   0.00000  Uiso   1.00
C346   C     0.82708   0.72874   0.05343   0.00000  Uiso   1.00
H347   H     1.00020   0.59723   0.02640   0.00000  Uiso   1.00
H348   H     0.93140   0.61114   0.05788   0.00000  Uiso   1.00
H349   H     0.92000   0.72729   0.98411   0.00000  Uiso   1.00
H350   H     0.98820   0.71434   0.95407   0.00000  Uiso   1.00
H351   H     0.88862   0.74407   0.04684   0.00000  Uiso   1.00
O352   O     0.88054   0.67628   1.04130   0.00000  Uiso   1.00
O353   O     0.81597   0.77148   0.05982   0.00000  Uiso   1.00
C354   C     0.99992   0.65513   0.98848   0.00000  Uiso   1.00
C355   C     0.98340   0.62637   0.01810   0.00000  Uiso   1.00
C356   C     0.94409   0.63413   0.03582   0.00000  Uiso   1.00
C357   C     0.92091   0.67091   1.02476   0.00000  Uiso   1.00
C358   C     0.93763   0.69961   0.99497   0.00000  Uiso   1.00
C359   C     0.97676   0.69201   0.97748   0.00000  Uiso   1.00
C360   C     0.86686   0.71861   0.04696   0.00000  Uiso   1.00
H361   H     0.75389   0.76183   1.00785   0.00000  Uiso   1.00
H362   H     0.78510   0.80551   0.12700   0.00000  Uiso   1.00
H363   H     0.68261   0.78977   0.01878   0.00000  Uiso   1.00
H364   H     0.80441   0.70410   1.05458   0.00000  Uiso   1.00
H365   H     0.71448   0.83221   0.13866   0.00000  Uiso   1.00
C366   C     0.56787   0.81107   0.21014   0.00000  Uiso   1.00
C367   C     0.59498   0.78658   0.23495   0.00000  Uiso   1.00
C368   C     0.58167   0.74959   0.25570   0.00000  Uiso   1.00
C369   C     0.54097   0.73703   0.25221   0.00000  Uiso   1.00
C370   C     0.51326   0.76311   0.23004   0.00000  Uiso   1.00
C371   C     0.52671   0.79948   0.20854   0.00000  Uiso   1.00
C372   C     0.54838   0.66217   0.25940   0.00000  Uiso   1.00
H373   H     0.48909   0.50877   0.36281   0.00000  Uiso   1.00
H374   H     0.52718   0.57026   0.33784   0.00000  Uiso   1.00
H375   H     0.54027   0.51706   0.21699   0.00000  Uiso   1.00
H376   H     0.50295   0.45399   0.24241   0.00000  Uiso   1.00
H377   H     0.50543   0.62464   0.29059   0.00000  Uiso   1.00
O378   O     0.55270   0.58637   0.25844   0.00000  Uiso   1.00
O379   O     0.52688   0.69950   0.27128   0.00000  Uiso   1.00
C380   C     0.49251   0.47693   0.30431   0.00000  Uiso   1.00
C381   C     0.50042   0.50985   0.33098   0.00000  Uiso   1.00
C382   C     0.52176   0.54530   0.31662   0.00000  Uiso   1.00
C383   C     0.53470   0.54919   0.27483   0.00000  Uiso   1.00
C384   C     0.52956   0.51496   0.24897   0.00000  Uiso   1.00
C385   C     0.50846   0.47903   0.26350   0.00000  Uiso   1.00
C386   C     0.53365   0.62465   0.27167   0.00000  Uiso   1.00
H387   H     0.60311   0.73034   0.27382   0.00000  Uiso   1.00
H388   H     0.48159   0.75415   0.22807   0.00000  Uiso   1.00
H389   H     0.62688   0.79482   0.23656   0.00000  Uiso   1.00
H390   H     0.57559   0.66316   0.23906   0.00000  Uiso   1.00
H391   H     0.50516   0.81799   0.18987   0.00000  Uiso   1.00
loop_
_geom_bond_atom_site_label_1
_geom_bond_atom_site_label_2
_geom_bond_distance
_geom_bond_site_symmetry_2
_ccdc_geom_bond_type
O0     C6      1.315   .     A
O0     Yb3     2.196   .     S
Yb1    Yb3     2.960   .     S
Yb1    O4      2.210   .     S
Yb1    O9      2.194   .     S
Yb1    O10     2.197   .     S
Yb1    O11     2.145   .     S
Yb1    O16     2.151   .     S
Yb1    O17     2.106   .     S
Yb1    O19     2.082   .     S
C2     O16     1.283   .     A
C2     O17     1.274   .     A
C2     C224    1.479   .     S
Yb3    O7      2.137   .     S
Yb3    O10     2.159   .     S
Yb3    O12     2.151   .     S
Yb3    O13     2.180   .     S
Yb3    O18     2.187   .     S
Yb3    O19     2.042   .     S
O4     C6      1.321   .     A
C5     O18     1.226   .     D
C5     O19     1.379   .     S
C5     C302    1.470   .     S
C6     C94     1.480   .     S
O7     C8      1.281   .     A
C8     O12     1.281   .     A
C8     C354    1.478   1_455 S
O9     C14     1.218   .     D
O10    C14     1.372   .     S
O11    C15     1.302   .     A
O13    C15     1.305   .     A
C14    C236    1.472   .     S
C15    C314    1.469   .     S
O20    C26     1.309   .     A
O20    Yb23    2.185   .     S
Yb21   Yb23    2.948   .     S
Yb21   O24     2.153   .     S
Yb21   O29     2.206   .     S
Yb21   O30     2.046   .     S
Yb21   O31     2.163   .     S
Yb21   O36     2.146   .     S
Yb21   O37     2.119   .     S
Yb21   O39     2.163   .     S
C22    O36     1.283   .     A
C22    O37     1.276   .     A
C22    C80     1.476   1_554 S
Yb23   O27     2.131   .     S
Yb23   O30     2.085   .     S
Yb23   O32     2.123   .     S
Yb23   O33     2.248   .     S
Yb23   O38     2.186   .     S
Yb23   O39     2.153   .     S
O24    C26     1.306   .     A
C25    O38     1.226   .     D
C25    O39     1.381   .     S
C25    C120    1.475   .     S
C26    C172    1.479   .     S
O27    C28     1.281   .     A
C28    O32     1.279   .     A
C28    C198    1.479   .     S
O29    C34     1.224   .     D
O30    C34     1.375   .     S
O31    C35     1.308   .     A
O33    C35     1.321   .     A
C34    C340    1.478   .     S
C35    C366    1.474   .     S
O40    C46     1.306   .     A
O40    Yb43    2.165   .     S
Yb41   Yb43    2.937   .     S
Yb41   O44     2.163   .     S
Yb41   O49     2.210   .     S
Yb41   O50     2.040   .     S
Yb41   O51     2.169   .     S
Yb41   O56     2.140   .     S
Yb41   O57     2.116   .     S
Yb41   O59     2.160   .     S
C42    O56     1.283   .     A
C42    O57     1.276   .     A
C42    C132    1.472   .     S
Yb43   O47     2.116   .     S
Yb43   O50     2.081   .     S
Yb43   O52     2.120   .     S
Yb43   O53     2.251   .     S
Yb43   O58     2.177   .     S
Yb43   O59     2.143   .     S
O44    C46     1.304   .     A
C45    O58     1.229   .     D
C45    O59     1.384   .     S
C45    C158    1.472   .     S
C46    C328    1.481   .     S
O47    C48     1.280   .     A
C48    O52     1.280   .     A
C48    C288    1.471   .     S
O49    C54     1.228   .     D
O50    C54     1.371   .     S
O51    C55     1.306   .     A
O53    C55     1.323   .     A
C54    C276    1.472   .     S
C55    C184    1.467   .     S
O60    C66     1.311   .     A
O60    Yb63    2.182   .     S
Yb61   Yb63    2.847   .     S
Yb61   O64     2.146   .     S
Yb61   O69     2.161   .     S
Yb61   O70     2.138   .     S
Yb61   O71     2.151   .     S
Yb61   O76     2.167   .     S
Yb61   O77     2.112   .     S
Yb61   O79     2.110   .     S
C62    O76     1.286   .     A
C62    O77     1.273   .     A
C62    C380    1.478   .     S
Yb63   O67     2.138   .     S
Yb63   O70     2.126   .     S
Yb63   O72     2.152   .     S
Yb63   O73     2.171   .     S
Yb63   O78     2.158   .     S
Yb63   O79     2.140   .     S
O64    C66     1.305   .     A
C65    O78     1.231   .     D
C65    O79     1.390   .     S
C65    C210    1.467   .     S
C66    C146    1.476   .     S
O67    C68     1.282   .     A
C68    O72     1.280   .     A
C68    C262    1.477   .     S
O69    C74     1.232   .     D
O70    C74     1.392   .     S
O71    C75     1.299   .     A
O73    C75     1.302   .     A
C74    C106    1.474   .     S
C75    C250    1.465   .     S
C80    C85     1.404   .     A
C80    C81     1.406   1_556 A
C80    C22     1.476   1_556 S
C81    H103    1.083   .     S
C81    C80     1.406   1_554 A
C81    C82     1.396   1_554 A
C82    C83     1.405   .     A
C82    C81     1.396   1_556 A
C82    H101    1.083   1_556 S
C83    C84     1.401   .     A
C83    O93     1.403   .     S
C84    C85     1.400   .     A
C84    H102    1.083   .     S
C85    H105    1.083   .     S
C86    O93     1.406   .     S
C86    C100    1.334   .     D
C86    H104    1.088   .     S
H87    C95     1.083   .     S
H88    C96     1.082   .     S
H89    C98     1.083   .     S
H90    C99     1.083   .     S
H91    C100    1.087   .     S
O92    C97     1.410   .     S
O92    C100    1.408   .     S
C94    C95     1.406   .     A
C94    C99     1.405   .     A
C95    C96     1.394   .     A
C96    C97     1.409   .     A
C97    C98     1.403   .     A
C98    C99     1.402   .     A
H101   C82     1.083   1_554 S
C106   C107    1.404   .     A
C106   C111    1.401   .     A
C107   C108    1.396   .     A
C107   H129    1.083   .     S
C108   C109    1.412   .     A
C108   H127    1.080   .     S
C109   C110    1.404   .     A
C109   O119    1.412   .     S
C110   C111    1.401   .     A
C110   H128    1.083   .     S
C111   H131    1.083   .     S
C112   O119    1.408   .     S
C112   C126    1.335   .     D
C112   H130    1.084   .     S
H113   C121    1.083   .     S
H114   C122    1.083   .     S
H115   C124    1.083   .     S
H116   C125    1.083   .     S
H117   C126    1.089   .     S
O118   C123    1.403   .     S
O118   C126    1.407   .     S
C120   C125    1.405   .     A
C120   C121    1.405   1_565 A
C121   C122    1.397   .     A
C121   C120    1.405   1_545 A
C122   C123    1.404   .     A
C123   C124    1.401   .     A
C124   C125    1.401   1_545 A
C125   C124    1.401   1_565 A
C132   C133    1.405   .     A
C132   C137    1.404   .     A
C133   C134    1.394   .     A
C133   H155    1.083   .     S
C134   C135    1.406   .     A
C134   H153    1.083   .     S
C135   C136    1.400   .     A
C135   O145    1.402   .     S
C136   C137    1.398   .     A
C136   H154    1.083   .     S
C137   H157    1.083   .     S
C138   O145    1.406   .     S
C138   C152    1.330   .     D
C138   H156    1.088   .     S
H139   C147    1.084   .     S
H140   C148    1.083   .     S
H141   C150    1.083   .     S
H142   C151    1.083   .     S
H143   C152    1.088   .     S
O144   C149    1.406   .     S
O144   C152    1.406   .     S
C146   C147    1.405   .     A
C146   C151    1.405   .     A
C147   C148    1.392   .     A
C148   C149    1.408   .     A
C149   C150    1.402   .     A
C150   C151    1.402   .     A
C158   C159    1.405   .     A
C158   C163    1.404   .     A
C159   C160    1.396   .     A
C159   H181    1.083   .     S
C160   C161    1.405   .     A
C160   H179    1.083   .     S
C161   C162    1.401   .     A
C161   O171    1.403   .     S
C162   C163    1.400   .     A
C162   H180    1.082   .     S
C163   H183    1.083   .     S
C164   O171    1.407   .     S
C164   C178    1.333   .     D
C164   H182    1.089   .     S
H165   C173    1.082   .     S
H166   C174    1.083   .     S
H167   C176    1.083   .     S
H168   C177    1.084   .     S
H169   C178    1.088   .     S
O170   C175    1.405   .     S
O170   C178    1.407   .     S
C172   C173    1.405   .     A
C172   C177    1.407   .     A
C173   C174    1.402   1_554 A
C174   C173    1.402   1_556 A
C174   C175    1.402   1_565 A
C175   C176    1.405   .     A
C175   C174    1.402   1_545 A
C176   C177    1.394   1_546 A
C177   C176    1.394   1_564 A
C184   C185    1.404   .     A
C184   C189    1.400   .     A
C185   C186    1.407   .     A
C185   H207    1.083   1_545 S
C186   C187    1.413   .     A
C186   H205    1.082   1_545 S
C187   C188    1.396   .     A
C187   O197    1.404   .     S
C188   C189    1.392   .     A
C188   H206    1.083   .     S
C189   H209    1.084   .     S
C190   O197    1.401   .     S
C190   C204    1.336   .     D
C190   H208    1.087   1_545 S
H191   C199    1.083   .     S
H192   C200    1.082   .     S
H193   C202    1.083   .     S
H194   C203    1.083   .     S
H195   C204    1.088   .     S
O196   C201    1.407   .     S
O196   C204    1.403   1_565 S
C198   C203    1.405   .     A
C198   C199    1.405   1_565 A
C199   C200    1.400   .     A
C199   C198    1.405   1_545 A
C200   C201    1.410   1_545 A
C201   C202    1.399   .     A
C201   C200    1.410   1_565 A
C202   C203    1.398   .     A
C204   O196    1.403   1_545 S
H205   C186    1.082   1_565 S
H207   C185    1.083   1_565 S
H208   C190    1.087   1_565 S
C210   C211    1.403   .     A
C210   C215    1.404   .     A
C211   C212    1.396   .     A
C211   H233    1.084   .     S
C212   C213    1.408   .     A
C212   H231    1.083   .     S
C213   C214    1.399   .     A
C213   O223    1.401   .     S
C214   C215    1.397   .     A
C214   H232    1.083   .     S
C215   H235    1.083   .     S
C216   O223    1.401   .     S
C216   C230    1.332   .     D
C216   H234    1.089   .     S
H217   C225    1.083   .     S
H218   C226    1.082   .     S
H219   C228    1.083   .     S
H220   C229    1.083   .     S
H221   C230    1.087   .     S
O222   C227    1.404   .     S
O222   C230    1.400   .     S
C224   C225    1.405   .     A
C224   C229    1.406   .     A
C225   C226    1.404   .     A
C226   C227    1.412   .     A
C227   C228    1.396   .     A
C228   C229    1.393   .     A
C236   C241    1.403   .     A
C236   C237    1.406   1_556 A
C237   C238    1.400   .     A
C237   H259    1.084   .     S
C237   C236    1.406   1_554 A
C238   C239    1.404   .     A
C238   H257    1.083   .     S
C239   O249    1.399   .     S
C239   C240    1.400   1_554 A
C240   C241    1.397   .     A
C240   H258    1.083   .     S
C240   C239    1.400   1_556 A
C241   H261    1.083   .     S
C242   O249    1.403   .     S
C242   C256    1.334   .     D
C242   H260    1.089   .     S
H243   C251    1.084   .     S
H244   C252    1.081   .     S
H245   C254    1.083   .     S
H246   C255    1.083   .     S
H247   C256    1.087   .     S
O248   C253    1.411   .     S
O248   C256    1.406   .     S
C250   C251    1.399   .     A
C250   C255    1.402   .     A
C251   C252    1.393   .     A
C252   C253    1.413   .     A
C253   C254    1.404   .     A
C254   C255    1.402   .     A
C262   C263    1.404   .     A
C262   C267    1.405   .     A
C263   C264    1.393   .     A
C263   H285    1.083   .     S
C264   C265    1.409   .     A
C264   H283    1.082   .     S
C265   C266    1.402   .     A
C265   O275    1.408   .     S
C266   C267    1.403   .     A
C266   H284    1.083   .     S
C267   H287    1.083   .     S
C268   O275    1.405   .     S
C268   C282    1.333   .     D
C268   H286    1.088   .     S
H269   C277    1.082   .     S
H270   C278    1.082   1_455 S
H271   C280    1.083   .     S
H272   C281    1.080   .     S
H273   C282    1.087   .     S
O274   C279    1.399   .     S
O274   C282    1.401   .     S
C276   C277    1.404   .     A
C276   C281    1.403   .     A
C277   C278    1.405   .     A
C278   H270    1.082   1_655 S
C278   C279    1.409   1_655 A
C279   C280    1.394   .     A
C279   C278    1.409   1_455 A
C280   C281    1.390   1_455 A
C281   C280    1.390   1_655 A
C288   C289    1.404   1_545 A
C288   C293    1.405   1_645 A
C289   C290    1.395   .     A
C289   H311    1.083   .     S
C289   C288    1.404   1_565 A
C290   H309    1.083   .     S
C290   C291    1.405   1_655 A
C291   C292    1.398   .     A
C291   O301    1.399   .     S
C291   C290    1.405   1_455 A
C292   C293    1.398   .     A
C292   H310    1.083   .     S
C293   C288    1.405   1_465 A
C293   H313    1.083   1_565 S
C294   O301    1.402   .     S
C294   C308    1.331   .     D
C294   H312    1.089   1_455 S
H295   C303    1.083   .     S
H296   C304    1.083   .     S
H297   C306    1.083   1_655 S
H298   C307    1.083   .     S
H299   C308    1.088   .     S
O300   C305    1.397   .     S
O300   C308    1.402   .     S
C302   C303    1.405   .     A
C302   C307    1.403   .     A
C303   C304    1.400   .     A
C304   C305    1.405   .     A
C305   C306    1.397   .     A
C306   C307    1.394   .     A
C306   H297    1.083   1_455 S
H312   C294    1.089   1_655 S
H313   C293    1.083   1_545 S
C314   C315    1.402   .     A
C314   C319    1.402   .     A
C315   C316    1.390   .     A
C315   H337    1.084   .     S
C316   C317    1.411   .     A
C316   H335    1.081   .     S
C317   C318    1.404   1_455 A
C317   O327    1.410   1_455 S
C318   H336    1.083   .     S
C318   C317    1.404   1_655 A
C318   C319    1.402   1_655 A
C319   C318    1.402   1_455 A
C319   H339    1.083   1_455 S
C320   H338    1.087   .     S
C320   O327    1.405   1_455 S
C320   C334    1.330   1_455 D
H321   C329    1.083   .     S
H322   C330    1.082   .     S
H323   C332    1.083   .     S
H324   C333    1.083   .     S
H325   C334    1.088   .     S
O326   C331    1.403   .     S
O326   C334    1.403   .     S
O327   C317    1.410   1_655 S
O327   C320    1.405   1_655 S
C328   C329    1.408   .     A
C328   C333    1.406   .     A
C329   C330    1.395   .     A
C330   C331    1.407   .     A
C331   C332    1.400   .     A
C332   C333    1.398   .     A
C334   C320    1.330   1_655 D
H339   C319    1.083   1_655 S
C340   C341    1.407   .     A
C340   C345    1.403   .     A
C341   C342    1.406   .     A
C341   H363    1.082   .     S
C342   C343    1.406   .     A
C342   H361    1.083   1_554 S
C343   C344    1.396   .     A
C343   O353    1.398   .     S
C344   C345    1.394   .     A
C344   H362    1.083   .     S
C345   H365    1.081   .     S
C346   O353    1.401   .     S
C346   C360    1.335   .     D
C346   H364    1.088   1_554 S
H347   C355    1.083   .     S
H348   C356    1.083   .     S
H349   C358    1.082   .     S
H350   C359    1.083   .     S
H351   C360    1.088   .     S
O352   C357    1.411   .     S
O352   C360    1.406   1_556 S
C354   C359    1.405   .     A
C354   C355    1.405   1_556 A
C354   C8      1.478   1_655 S
C355   C356    1.403   .     A
C355   C354    1.405   1_554 A
C356   C357    1.403   1_554 A
C357   C358    1.410   .     A
C357   C356    1.403   1_556 A
C358   C359    1.394   .     A
C360   O352    1.406   1_554 S
H361   C342    1.083   1_556 S
H364   C346    1.088   1_556 S
C366   C367    1.406   .     A
C366   C371    1.404   .     A
C367   C368    1.400   .     A
C367   H389    1.083   .     S
C368   C369    1.405   .     A
C368   H387    1.083   .     S
C369   C370    1.398   .     A
C369   O379    1.400   .     S
C370   C371    1.397   .     A
C370   H388    1.083   .     S
C371   H391    1.083   .     S
C372   O379    1.405   .     S
C372   C386    1.334   .     D
C372   H390    1.088   .     S
H373   C381    1.084   .     S
H374   C382    1.083   .     S
H375   C384    1.083   .     S
H376   C385    1.083   .     S
H377   C386    1.089   .     S
O378   C383    1.408   .     S
O378   C386    1.409   .     S
C380   C381    1.405   .     A
C380   C385    1.404   .     A
C381   C382    1.394   .     A
C382   C383    1.407   .     A
C383   C384    1.403   .     A
C384   C385    1.404   .     A
