data_lcy+N123+E161
_audit_creation_date              2025-01-21
_audit_creation_method            'Materials Studio'
_symmetry_space_group_name_H-M    'P1'
_symmetry_Int_Tables_number       1
_symmetry_cell_setting            triclinic
loop_
_symmetry_equiv_pos_as_xyz
  x,y,z
_cell_length_a                    41.7912
_cell_length_b                    38.4904
_cell_length_c                    39.0996
_cell_angle_alpha                 91.4486
_cell_angle_beta                  99.4069
_cell_angle_gamma                 90.5984
loop_
_atom_site_label
_atom_site_type_symbol
_atom_site_fract_x
_atom_site_fract_y
_atom_site_fract_z
_atom_site_U_iso_or_equiv
_atom_site_adp_type
_atom_site_occupancy
Ce0    Ce    0.14900   0.61413   0.85460   0.00000  Uiso   1.00
Ce1    Ce    0.10888   0.63562   0.90594   0.00000  Uiso   1.00
C2     C     0.16594   0.66891   0.92831   0.00000  Uiso   1.00
C3     C     0.18313   0.59222   0.80516   0.00000  Uiso   1.00
C4     C     0.10044   0.67906   0.83567   0.00000  Uiso   1.00
C5     C     0.09868   0.56997   0.83531   0.00000  Uiso   1.00
C6     C     0.07201   0.65736   0.95212   0.00000  Uiso   1.00
C7     C     0.15846   0.57314   0.92718   0.00000  Uiso   1.00
O8     O     0.14397   0.66904   0.94551   0.00000  Uiso   1.00
O9     O     0.15599   0.65731   0.89443   0.00000  Uiso   1.00
O10    O     0.19390   0.61583   0.82788   0.00000  Uiso   1.00
O11    O     0.15546   0.57926   0.80824   0.00000  Uiso   1.00
O12    O     0.11976   0.65750   0.82318   0.00000  Uiso   1.00
O13    O     0.09186   0.67644   0.86588   0.00000  Uiso   1.00
O14    O     0.12261   0.57061   0.82089   0.00000  Uiso   1.00
O15    O     0.09938   0.59458   0.86252   0.00000  Uiso   1.00
O16    O     0.06398   0.63169   0.93114   0.00000  Uiso   1.00
O17    O     0.09980   0.67108   0.95099   0.00000  Uiso   1.00
O18    O     0.13527   0.59136   0.93614   0.00000  Uiso   1.00
O19    O     0.16911   0.57614   0.89798   0.00000  Uiso   1.00
Ce20   Ce    0.59524   0.89493   0.11461   0.00000  Uiso   1.00
Ce21   Ce    0.64819   0.84583   0.09953   0.00000  Uiso   1.00
C22    C     0.58552   0.82402   0.07315   0.00000  Uiso   1.00
C23    C     0.55603   0.94438   0.13382   0.00000  Uiso   1.00
C24    C     0.64771   0.92165   0.06681   0.00000  Uiso   1.00
C25    C     0.64538   0.91090   0.16486   0.00000  Uiso   1.00
C26    C     0.69530   0.80484   0.08375   0.00000  Uiso   1.00
C27    C     0.59776   0.82010   0.15171   0.00000  Uiso   1.00
O28    O     0.60596   0.80520   0.08835   0.00000  Uiso   1.00
O29    O     0.59723   0.85712   0.07024   0.00000  Uiso   1.00
O30    O     0.54828   0.92614   0.10583   0.00000  Uiso   1.00
O31    O     0.58325   0.93719   0.15190   0.00000  Uiso   1.00
O32    O     0.62242   0.92970   0.08050   0.00000  Uiso   1.00
O33    O     0.66348   0.89312   0.07202   0.00000  Uiso   1.00
O34    O     0.62128   0.92885   0.15884   0.00000  Uiso   1.00
O35    O     0.64162   0.87891   0.14683   0.00000  Uiso   1.00
O36    O     0.69652   0.81906   0.11386   0.00000  Uiso   1.00
O37    O     0.66906   0.80946   0.06258   0.00000  Uiso   1.00
O38    O     0.62185   0.81158   0.13561   0.00000  Uiso   1.00
O39    O     0.58293   0.84976   0.14866   0.00000  Uiso   1.00
Ce40   Ce    0.88910   0.13360   0.59660   0.00000  Uiso   1.00
Ce41   Ce    0.84867   0.11246   0.65113   0.00000  Uiso   1.00
C42    C     0.82826   0.08572   0.58394   0.00000  Uiso   1.00
C43    C     0.92873   0.15687   0.55363   0.00000  Uiso   1.00
C44    C     0.92087   0.08023   0.65586   0.00000  Uiso   1.00
C45    C     0.90337   0.18598   0.64309   0.00000  Uiso   1.00
C46    C     0.81371   0.09598   0.70054   0.00000  Uiso   1.00
C47    C     0.81633   0.16584   0.59077   0.00000  Uiso   1.00
O48    O     0.81019   0.09812   0.60192   0.00000  Uiso   1.00
O49    O     0.85932   0.08597   0.60099   0.00000  Uiso   1.00
O50    O     0.91181   0.12884   0.54700   0.00000  Uiso   1.00
O51    O     0.92442   0.17337   0.58125   0.00000  Uiso   1.00
O52    O     0.92627   0.09896   0.63005   0.00000  Uiso   1.00
O53    O     0.89472   0.08130   0.66984   0.00000  Uiso   1.00
O54    O     0.91531   0.18400   0.61649   0.00000  Uiso   1.00
O55    O     0.88231   0.15840   0.64691   0.00000  Uiso   1.00
O56    O     0.82950   0.12460   0.70103   0.00000  Uiso   1.00
O57    O     0.81491   0.07607   0.67411   0.00000  Uiso   1.00
O58    O     0.81274   0.14928   0.61860   0.00000  Uiso   1.00
O59    O     0.84231   0.16440   0.57638   0.00000  Uiso   1.00
Ce60   Ce    0.40511   0.39881   0.38383   0.00000  Uiso   1.00
Ce61   Ce    0.35009   0.35132   0.39985   0.00000  Uiso   1.00
C62    C     0.41268   0.33106   0.42592   0.00000  Uiso   1.00
C63    C     0.44412   0.44669   0.36101   0.00000  Uiso   1.00
C64    C     0.35260   0.43024   0.43016   0.00000  Uiso   1.00
C65    C     0.35334   0.41043   0.33462   0.00000  Uiso   1.00
C66    C     0.30136   0.31160   0.41497   0.00000  Uiso   1.00
C67    C     0.40019   0.32115   0.34796   0.00000  Uiso   1.00
O68    O     0.39149   0.31109   0.41187   0.00000  Uiso   1.00
O69    O     0.40136   0.36426   0.42857   0.00000  Uiso   1.00
O70    O     0.45226   0.43157   0.38980   0.00000  Uiso   1.00
O71    O     0.41653   0.43740   0.34433   0.00000  Uiso   1.00
O72    O     0.37913   0.43598   0.41783   0.00000  Uiso   1.00
O73    O     0.33536   0.40196   0.42458   0.00000  Uiso   1.00
O74    O     0.37684   0.42995   0.34056   0.00000  Uiso   1.00
O75    O     0.35864   0.37937   0.35194   0.00000  Uiso   1.00
O76    O     0.30119   0.32384   0.38486   0.00000  Uiso   1.00
O77    O     0.32711   0.31802   0.43687   0.00000  Uiso   1.00
O78    O     0.37573   0.31432   0.36413   0.00000  Uiso   1.00
O79    O     0.41600   0.35077   0.35077   0.00000  Uiso   1.00
H80    H     0.19001   0.69815   0.99157   0.00000  Uiso   1.00
C81    C     0.55211   0.81263   0.06003   0.00000  Uiso   1.00
C82    C     0.54346   0.80057   0.02569   0.00000  Uiso   1.00
C83    C     0.51155   0.78928   0.01308   0.00000  Uiso   1.00
C84    C     0.48813   0.79017   0.03536   0.00000  Uiso   1.00
C85    C     0.49681   0.80272   0.06989   0.00000  Uiso   1.00
C86    C     0.52878   0.81379   0.08191   0.00000  Uiso   1.00
C87    C     0.50261   0.77639   0.97607   0.00000  Uiso   1.00
C88    C     0.47208   0.80435   0.09388   0.00000  Uiso   1.00
C89    C     0.44783   0.74372   0.02696   0.00000  Uiso   1.00
C90    C     0.41571   0.73160   0.01740   0.00000  Uiso   1.00
C91    C     0.39165   0.75509   0.00363   0.00000  Uiso   1.00
C92    C     0.40005   0.79008   0.99942   0.00000  Uiso   1.00
C93    C     0.43248   0.80102   0.00944   0.00000  Uiso   1.00
C94    C     0.40706   0.69679   0.02160   0.00000  Uiso   1.00
C95    C     0.37490   0.68541   1.01228   0.00000  Uiso   1.00
C96    C     0.35071   0.70858   0.99843   0.00000  Uiso   1.00
C97    C     0.35911   0.74355   0.99410   0.00000  Uiso   1.00
C98    C     0.33506   0.76700   0.98021   0.00000  Uiso   1.00
C99    C     0.34370   0.80186   0.97617   0.00000  Uiso   1.00
C100   C     0.37585   0.81327   0.98568   0.00000  Uiso   1.00
C101   C     0.31826   0.69765   0.98855   0.00000  Uiso   1.00
C102   C     0.30295   0.75482   0.97053   0.00000  Uiso   1.00
C103   C     0.26253   0.70835   0.96298   0.00000  Uiso   1.00
C104   C     0.27711   0.69164   0.90373   0.00000  Uiso   1.00
C105   C     0.22183   0.68185   0.91819   0.00000  Uiso   1.00
C106   C     0.24865   0.72454   0.02196   0.00000  Uiso   1.00
C107   C     0.20773   0.69717   0.97421   0.00000  Uiso   1.00
C108   C     0.23943   0.70983   0.98563   0.00000  Uiso   1.00
C109   C     0.25357   0.69423   0.92901   0.00000  Uiso   1.00
C110   C     0.19883   0.68310   0.94056   0.00000  Uiso   1.00
H111   H     0.25659   0.75209   0.02116   0.00000  Uiso   1.00
N112   N     0.45549   0.77793   0.02318   0.00000  Uiso   1.00
N113   N     0.29524   0.72068   0.97468   0.00000  Uiso   1.00
H114   H     0.26880   0.70937   0.03616   0.00000  Uiso   1.00
H115   H     0.56166   0.79983   0.00886   0.00000  Uiso   1.00
H116   H     0.53538   0.82332   0.10836   0.00000  Uiso   1.00
H117   H     0.52369   0.77743   0.96208   0.00000  Uiso   1.00
H118   H     0.49380   0.74902   0.97537   0.00000  Uiso   1.00
H119   H     0.48320   0.79277   0.96223   0.00000  Uiso   1.00
H120   H     0.46207   0.77795   0.09672   0.00000  Uiso   1.00
H121   H     0.48281   0.81464   0.12009   0.00000  Uiso   1.00
H122   H     0.45204   0.82169   0.08318   0.00000  Uiso   1.00
O123   O     0.44107   0.83511   0.00597   0.00000  Uiso   1.00
O124   O     0.47156   0.72128   0.04071   0.00000  Uiso   1.00
H125   H     0.42509   0.67824   0.03219   0.00000  Uiso   1.00
H126   H     0.38166   0.84032   0.98227   0.00000  Uiso   1.00
H127   H     0.36908   0.65841   1.01591   0.00000  Uiso   1.00
H128   H     0.26782   0.70647   0.88026   0.00000  Uiso   1.00
H129   H     0.30161   0.70201   0.91456   0.00000  Uiso   1.00
H130   H     0.21520   0.67092   0.89213   0.00000  Uiso   1.00
H131   H     0.32568   0.82044   0.96565   0.00000  Uiso   1.00
H132   H     0.22799   0.72356   0.03655   0.00000  Uiso   1.00
O133   O     0.27927   0.77713   0.95640   0.00000  Uiso   1.00
O134   O     0.30967   0.66361   0.99231   0.00000  Uiso   1.00
H135   H     0.27956   0.66395   0.89600   0.00000  Uiso   1.00
H136   H     0.54628   1.00618   0.10443   0.00000  Uiso   1.00
C137   C     0.41189   0.29251   0.32755   0.00000  Uiso   1.00
C138   C     0.40559   0.25793   0.33521   0.00000  Uiso   1.00
C139   C     0.41729   0.23028   0.31707   0.00000  Uiso   1.00
C140   C     0.43545   0.23721   0.29055   0.00000  Uiso   1.00
C141   C     0.44172   0.27192   0.28248   0.00000  Uiso   1.00
C142   C     0.43013   0.29930   0.30128   0.00000  Uiso   1.00
C143   C     0.41056   0.19344   0.32619   0.00000  Uiso   1.00
C144   C     0.46041   0.27972   0.25373   0.00000  Uiso   1.00
C145   C     0.42710   0.19331   0.24429   0.00000  Uiso   1.00
C146   C     0.43719   0.16399   0.22700   0.00000  Uiso   1.00
C147   C     0.46850   0.15107   0.23801   0.00000  Uiso   1.00
C148   C     0.48921   0.16771   0.26581   0.00000  Uiso   1.00
C149   C     0.47792   0.19675   0.28252   0.00000  Uiso   1.00
C150   C     0.41668   0.14709   0.19934   0.00000  Uiso   1.00
C151   C     0.42699   0.11751   0.18305   0.00000  Uiso   1.00
C152   C     0.45808   0.10426   0.19398   0.00000  Uiso   1.00
C153   C     0.47899   0.12125   0.22141   0.00000  Uiso   1.00
C154   C     0.51028   0.10831   0.23246   0.00000  Uiso   1.00
C155   C     0.53089   0.12534   0.25994   0.00000  Uiso   1.00
C156   C     0.52044   0.15468   0.27649   0.00000  Uiso   1.00
C157   C     0.46883   0.07425   0.17835   0.00000  Uiso   1.00
C158   C     0.52008   0.07847   0.21579   0.00000  Uiso   1.00
C159   C     0.50996   0.03123   0.17316   0.00000  Uiso   1.00
C160   C     0.49625   0.99443   0.22254   0.00000  Uiso   1.00
C161   C     0.52377   0.97002   0.17541   0.00000  Uiso   1.00
C162   C     0.52451   0.06829   0.12503   0.00000  Uiso   1.00
C163   C     0.53539   1.00418   0.12765   0.00000  Uiso   1.00
C164   C     0.52270   0.03377   0.14195   0.00000  Uiso   1.00
C165   C     0.50990   0.99888   0.18955   0.00000  Uiso   1.00
C166   C     0.53645   0.97259   0.14461   0.00000  Uiso   1.00
H167   H     0.53898   0.08705   0.14357   0.00000  Uiso   1.00
N168   N     0.44728   0.20878   0.27171   0.00000  Uiso   1.00
N169   N     0.49933   0.06204   0.18941   0.00000  Uiso   1.00
H170   H     0.49977   0.07859   0.11720   0.00000  Uiso   1.00
H171   H     0.39204   0.25246   0.35589   0.00000  Uiso   1.00
H172   H     0.43505   0.32594   0.29522   0.00000  Uiso   1.00
H173   H     0.39627   0.19239   0.34773   0.00000  Uiso   1.00
H174   H     0.39653   0.17942   0.30331   0.00000  Uiso   1.00
H175   H     0.43381   0.17993   0.33430   0.00000  Uiso   1.00
H176   H     0.44776   0.26775   0.22898   0.00000  Uiso   1.00
H177   H     0.46268   0.30812   0.25014   0.00000  Uiso   1.00
H178   H     0.48519   0.26898   0.25973   0.00000  Uiso   1.00
O179   O     0.49746   0.21276   0.31021   0.00000  Uiso   1.00
O180   O     0.39658   0.20612   0.23410   0.00000  Uiso   1.00
H181   H     0.39250   0.15648   0.19035   0.00000  Uiso   1.00
H182   H     0.53689   0.16700   0.29773   0.00000  Uiso   1.00
H183   H     0.41049   0.10503   0.16195   0.00000  Uiso   1.00
H184   H     0.51588   0.98669   0.24353   0.00000  Uiso   1.00
H185   H     0.48517   1.01845   0.23123   0.00000  Uiso   1.00
H186   H     0.52537   0.94564   0.18887   0.00000  Uiso   1.00
H187   H     0.55508   0.11595   0.26892   0.00000  Uiso   1.00
H188   H     0.53624   0.06614   0.10155   0.00000  Uiso   1.00
O189   O     0.55053   0.06556   0.22614   0.00000  Uiso   1.00
O190   O     0.44860   0.05694   0.15205   0.00000  Uiso   1.00
H191   H     0.47711   0.97383   0.21840   0.00000  Uiso   1.00
H192   H     0.43708   0.26641   0.43641   0.00000  Uiso   1.00
C193   C     0.78772   0.18462   0.57355   0.00000  Uiso   1.00
C194   C     0.79061   0.21626   0.55721   0.00000  Uiso   1.00
C195   C     0.76271   0.23414   0.54225   0.00000  Uiso   1.00
C196   C     0.73159   0.21960   0.54298   0.00000  Uiso   1.00
C197   C     0.72881   0.18726   0.55850   0.00000  Uiso   1.00
C198   C     0.75677   0.17036   0.57392   0.00000  Uiso   1.00
C199   C     0.76617   0.26877   0.52615   0.00000  Uiso   1.00
C200   C     0.69607   0.17055   0.55855   0.00000  Uiso   1.00
C201   C     0.69032   0.23392   0.49414   0.00000  Uiso   1.00
C202   C     0.65958   0.24702   0.48081   0.00000  Uiso   1.00
C203   C     0.64144   0.26364   0.50366   0.00000  Uiso   1.00
C204   C     0.65477   0.26825   0.53899   0.00000  Uiso   1.00
C205   C     0.68589   0.25548   0.55096   0.00000  Uiso   1.00
C206   C     0.64616   0.24297   0.44552   0.00000  Uiso   1.00
C207   C     0.61494   0.25473   0.43322   0.00000  Uiso   1.00
C208   C     0.59628   0.27048   0.45597   0.00000  Uiso   1.00
C209   C     0.60965   0.27506   0.49130   0.00000  Uiso   1.00
C210   C     0.59109   0.29051   0.51441   0.00000  Uiso   1.00
C211   C     0.60478   0.29535   0.54953   0.00000  Uiso   1.00
C212   C     0.63632   0.28451   0.56165   0.00000  Uiso   1.00
C213   C     0.56432   0.28128   0.44446   0.00000  Uiso   1.00
C214   C     0.55902   0.30018   0.50188   0.00000  Uiso   1.00
C215   C     0.51272   0.30401   0.45573   0.00000  Uiso   1.00
C216   C     0.52842   0.36838   0.45463   0.00000  Uiso   1.00
C217   C     0.47094   0.34745   0.44183   0.00000  Uiso   1.00
C218   C     0.49701   0.24019   0.45683   0.00000  Uiso   1.00
C219   C     0.45571   0.28659   0.44059   0.00000  Uiso   1.00
C220   C     0.48837   0.27767   0.45069   0.00000  Uiso   1.00
C221   C     0.50378   0.33914   0.45078   0.00000  Uiso   1.00
C222   C     0.44685   0.32143   0.43662   0.00000  Uiso   1.00
H223   H     0.50987   0.23737   0.48379   0.00000  Uiso   1.00
N224   N     0.70253   0.23771   0.52879   0.00000  Uiso   1.00
N225   N     0.54615   0.29512   0.46752   0.00000  Uiso   1.00
H226   H     0.51296   0.23117   0.43845   0.00000  Uiso   1.00
H227   H     0.81451   0.22735   0.55694   0.00000  Uiso   1.00
H228   H     0.75438   0.14564   0.58600   0.00000  Uiso   1.00
H229   H     0.79202   0.27687   0.52820   0.00000  Uiso   1.00
H230   H     0.75531   0.26730   0.49827   0.00000  Uiso   1.00
H231   H     0.75349   0.28891   0.53951   0.00000  Uiso   1.00
H232   H     0.68305   0.16725   0.53152   0.00000  Uiso   1.00
H233   H     0.69827   0.14453   0.57027   0.00000  Uiso   1.00
H234   H     0.68152   0.18700   0.57376   0.00000  Uiso   1.00
O235   O     0.69902   0.25939   0.58542   0.00000  Uiso   1.00
O236   O     0.70751   0.21594   0.47258   0.00000  Uiso   1.00
H237   H     0.65960   0.23045   0.42732   0.00000  Uiso   1.00
H238   H     0.64597   0.28838   0.58894   0.00000  Uiso   1.00
H239   H     0.60530   0.25090   0.40593   0.00000  Uiso   1.00
H240   H     0.52453   0.38618   0.47632   0.00000  Uiso   1.00
H241   H     0.55374   0.35917   0.45982   0.00000  Uiso   1.00
H242   H     0.46424   0.37442   0.43826   0.00000  Uiso   1.00
H243   H     0.59107   0.30725   0.56783   0.00000  Uiso   1.00
H244   H     0.47513   0.22303   0.45312   0.00000  Uiso   1.00
O245   O     0.54036   0.31436   0.52432   0.00000  Uiso   1.00
O246   O     0.55111   0.27742   0.41003   0.00000  Uiso   1.00
H247   H     0.52548   0.38317   0.43032   0.00000  Uiso   1.00
H248   H     0.67709   0.98561   0.07586   0.00000  Uiso   1.00
C249   C     0.79657   0.08640   0.72909   0.00000  Uiso   1.00
C250   C     0.77752   0.05599   0.72686   0.00000  Uiso   1.00
C251   C     0.76311   0.04576   0.75507   0.00000  Uiso   1.00
C252   C     0.76800   0.06626   0.78599   0.00000  Uiso   1.00
C253   C     0.78665   0.09722   0.78810   0.00000  Uiso   1.00
C254   C     0.80062   0.10709   0.75956   0.00000  Uiso   1.00
C255   C     0.74308   1.01281   0.75234   0.00000  Uiso   1.00
C256   C     0.79239   0.11921   0.82099   0.00000  Uiso   1.00
C257   C     0.77336   0.03189   0.83751   0.00000  Uiso   1.00
C258   C     0.76230   1.02075   0.86750   0.00000  Uiso   1.00
C259   C     0.73277   0.03353   0.87527   0.00000  Uiso   1.00
C260   C     0.71478   0.05697   0.85283   0.00000  Uiso   1.00
C261   C     0.72668   0.06718   0.82299   0.00000  Uiso   1.00
C262   C     0.78001   0.99721   0.88977   0.00000  Uiso   1.00
C263   C     0.76850   0.98629   0.91932   0.00000  Uiso   1.00
C264   C     0.73898   0.99860   0.92738   0.00000  Uiso   1.00
C265   C     0.72098   1.02258   0.90532   0.00000  Uiso   1.00
C266   C     0.69241   0.03468   0.91260   0.00000  Uiso   1.00
C267   C     0.67434   0.05832   0.89066   0.00000  Uiso   1.00
C268   C     0.68540   0.06942   0.86090   0.00000  Uiso   1.00
C269   C     0.72676   0.98664   0.95652   0.00000  Uiso   1.00
C270   C     0.68014   1.02176   0.94342   0.00000  Uiso   1.00
C271   C     0.68284   0.98047   0.98944   0.00000  Uiso   1.00
C272   C     0.66049   0.93298   0.94451   0.00000  Uiso   1.00
C273   C     0.65367   0.93079   0.00653   0.00000  Uiso   1.00
C274   C     0.70497   0.02778   0.03347   0.00000  Uiso   1.00
C275   C     0.67366   0.97588   0.04923   0.00000  Uiso   1.00
C276   C     0.68656   0.99424   0.02380   0.00000  Uiso   1.00
C277   C     0.66576   0.94877   0.98074   0.00000  Uiso   1.00
C278   C     0.65767   0.94399   0.04062   0.00000  Uiso   1.00
H279   H     0.69297   0.04911   0.01787   0.00000  Uiso   1.00
N280   N     0.75555   0.05469   0.81603   0.00000  Uiso   1.00
N281   N     0.69743   0.99769   0.96349   0.00000  Uiso   1.00
H282   H     0.73020   0.02528   0.02829   0.00000  Uiso   1.00
H283   H     0.77432   0.03995   0.70334   0.00000  Uiso   1.00
H284   H     0.81545   0.13053   0.76145   0.00000  Uiso   1.00
H285   H     0.74109   1.00014   0.72624   0.00000  Uiso   1.00
H286   H     0.75438   0.99418   0.77176   0.00000  Uiso   1.00
H287   H     0.71823   0.01871   0.75716   0.00000  Uiso   1.00
H288   H     0.80454   0.10363   0.84275   0.00000  Uiso   1.00
H289   H     0.80801   0.14228   0.81865   0.00000  Uiso   1.00
H290   H     0.76890   0.12852   0.82719   0.00000  Uiso   1.00
O291   O     0.70938   0.08988   0.80080   0.00000  Uiso   1.00
O292   O     0.80225   1.01997   0.82973   0.00000  Uiso   1.00
H293   H     0.80276   0.98695   0.88434   0.00000  Uiso   1.00
H294   H     0.67090   0.08749   0.84433   0.00000  Uiso   1.00
H295   H     0.78274   0.96786   0.93568   0.00000  Uiso   1.00
H296   H     0.63409   0.92907   0.93529   0.00000  Uiso   1.00
H297   H     0.67007   0.94944   0.92554   0.00000  Uiso   1.00
H298   H     0.64143   0.90591   0.00012   0.00000  Uiso   1.00
H299   H     0.65151   0.06803   0.89637   0.00000  Uiso   1.00
H300   H     0.70601   0.03485   0.06135   0.00000  Uiso   1.00
O301   O     0.65059   0.03231   0.95047   0.00000  Uiso   1.00
O302   O     0.74370   0.96250   0.97725   0.00000  Uiso   1.00
H303   H     0.67260   0.90743   0.94462   0.00000  Uiso   1.00
H304   H     0.70023   0.87482   0.18946   0.00000  Uiso   1.00
C305   C     0.81841   0.07088   0.54867   0.00000  Uiso   1.00
C306   C     0.78811   0.07795   0.52915   0.00000  Uiso   1.00
C307   C     0.77903   0.06320   0.49564   0.00000  Uiso   1.00
C308   C     0.80043   0.04057   0.48187   0.00000  Uiso   1.00
C309   C     0.83090   0.03340   0.50155   0.00000  Uiso   1.00
C310   C     0.83977   0.04901   0.53455   0.00000  Uiso   1.00
C311   C     0.74661   0.07152   0.47480   0.00000  Uiso   1.00
C312   C     0.85357   0.00842   0.48785   0.00000  Uiso   1.00
C313   C     0.80052   0.03693   0.41974   0.00000  Uiso   1.00
C314   C     0.79180   0.02015   0.38713   0.00000  Uiso   1.00
C315   C     0.77238  -0.01024   0.38450   0.00000  Uiso   1.00
C316   C     0.76264   0.97622   0.41440   0.00000  Uiso   1.00
C317   C     0.77245   0.99352   0.44649   0.00000  Uiso   1.00
C318   C     0.80164   0.03318   0.35715   0.00000  Uiso   1.00
C319   C     0.79181   0.01661   0.32487   0.00000  Uiso   1.00
C320   C     0.77157  -0.01308   0.32182   0.00000  Uiso   1.00
C321   C     0.76203   0.97331   0.35178   0.00000  Uiso   1.00
C322   C     0.74130   0.94392   0.34896   0.00000  Uiso   1.00
C323   C     0.73233   0.93020   0.37906   0.00000  Uiso   1.00
C324   C     0.74305   0.94607   0.41146   0.00000  Uiso   1.00
C325   C     0.75911  -0.02846   0.28931   0.00000  Uiso   1.00
C326   C     0.72865   0.93018   0.31584   0.00000  Uiso   1.00
C327   C     0.71636   0.93757   0.25388   0.00000  Uiso   1.00
C328   C     0.68477   0.99217   0.26339   0.00000  Uiso   1.00
C329   C     0.66893   0.95156   0.21231   0.00000  Uiso   1.00
C330   C     0.74833   0.88331   0.24530   0.00000  Uiso   1.00
C331   C     0.69789   0.89868   0.20407   0.00000  Uiso   1.00
C332   C     0.72046   0.90707   0.23414   0.00000  Uiso   1.00
C333   C     0.69049   0.95998   0.24255   0.00000  Uiso   1.00
C334   C     0.67176   0.92058   0.19349   0.00000  Uiso   1.00
H335   H     0.74653   0.87274   0.27106   0.00000  Uiso   1.00
N336   N     0.79070   0.02349   0.44852   0.00000  Uiso   1.00
N337   N     0.73660   0.94506   0.28682   0.00000  Uiso   1.00
H338   H     0.77159   0.89793   0.24692   0.00000  Uiso   1.00
H339   H     0.77164   0.09499   0.53998   0.00000  Uiso   1.00
H340   H     0.86316   0.04338   0.54969   0.00000  Uiso   1.00
H341   H     0.73304   0.09000   0.48913   0.00000  Uiso   1.00
H342   H     0.75013   0.08348   0.45010   0.00000  Uiso   1.00
H343   H     0.73173   0.04740   0.46886   0.00000  Uiso   1.00
H344   H     0.86054   0.01829   0.46362   0.00000  Uiso   1.00
H345   H     0.87606   0.00484   0.50685   0.00000  Uiso   1.00
H346   H     0.84140   0.98262   0.48229   0.00000  Uiso   1.00
O347   O     0.76355   0.98042   0.47596   0.00000  Uiso   1.00
O348   O     0.81890   0.06696   0.42274   0.00000  Uiso   1.00
H349   H     0.81665   0.05643   0.35839   0.00000  Uiso   1.00
H350   H     0.73541   0.93501   0.43407   0.00000  Uiso   1.00
H351   H     0.79945   0.02765   0.30224   0.00000  Uiso   1.00
H352   H     0.66258   1.00590   0.25164   0.00000  Uiso   1.00
H353   H     0.68177  -0.01494   0.29004   0.00000  Uiso   1.00
H354   H     0.64888   0.96872   0.20416   0.00000  Uiso   1.00
H355   H     0.71657   0.90752   0.37769   0.00000  Uiso   1.00
H356   H     0.74853   0.86107   0.22667   0.00000  Uiso   1.00
O357   O     0.70618   0.90351   0.31248   0.00000  Uiso   1.00
O358   O     0.76738  -0.01497   0.25972   0.00000  Uiso   1.00
H359   H     0.70557   0.01056   0.26477   0.00000  Uiso   1.00
H360   H     0.15637   0.57654   0.73962   0.00000  Uiso   1.00
C361   C     0.34266   0.45563   0.45493   0.00000  Uiso   1.00
C362   C     0.36414   0.46368   0.48554   0.00000  Uiso   1.00
C363   C     0.35286   0.47864   0.51435   0.00000  Uiso   1.00
C364   C     0.31977   0.48712   0.51189   0.00000  Uiso   1.00
C365   C     0.29866   0.48182   0.47999   0.00000  Uiso   1.00
C366   C     0.31021   0.46553   0.45193   0.00000  Uiso   1.00
C367   C     0.37560   0.48296   0.54829   0.00000  Uiso   1.00
C368   C     0.26364   0.49205   0.47627   0.00000  Uiso   1.00
C369   C     0.31033   0.53164   0.55434   0.00000  Uiso   1.00
C370   C     0.29904   0.54203   0.58498   0.00000  Uiso   1.00
C371   C     0.28426   0.51711   0.60333   0.00000  Uiso   1.00
C372   C     0.28102   0.48236   0.59093   0.00000  Uiso   1.00
C373   C     0.29275   0.47318   0.56027   0.00000  Uiso   1.00
C374   C     0.30221   0.57660   0.59769   0.00000  Uiso   1.00
C375   C     0.29048   0.58639   0.62796   0.00000  Uiso   1.00
C376   C     0.27542   0.56182   0.64629   0.00000  Uiso   1.00
C377   C     0.27255   0.52699   0.63410   0.00000  Uiso   1.00
C378   C     0.25774   0.50209   0.65243   0.00000  Uiso   1.00
C379   C     0.25480   0.46745   0.63990   0.00000  Uiso   1.00
C380   C     0.26627   0.45770   0.60947   0.00000  Uiso   1.00
C381   C     0.26257   0.57130   0.67622   0.00000  Uiso   1.00
C382   C     0.24570   0.51268   0.68255   0.00000  Uiso   1.00
C383   C     0.23188   0.55794   0.72201   0.00000  Uiso   1.00
C384   C     0.28615   0.56041   0.76330   0.00000  Uiso   1.00
C385   C     0.23413   0.57784   0.78217   0.00000  Uiso   1.00
C386   C     0.17823   0.55718   0.68074   0.00000  Uiso   1.00
C387   C     0.18246   0.57335   0.74394   0.00000  Uiso   1.00
C388   C     0.19794   0.56261   0.71635   0.00000  Uiso   1.00
C389   C     0.25004   0.56547   0.75534   0.00000  Uiso   1.00
C390   C     0.20034   0.58113   0.77679   0.00000  Uiso   1.00
H391   H     0.17982   0.52982   0.67166   0.00000  Uiso   1.00
N392   N     0.30706   0.49773   0.54265   0.00000  Uiso   1.00
N393   N     0.24765   0.54692   0.69341   0.00000  Uiso   1.00
H394   H     0.18752   0.57468   0.66233   0.00000  Uiso   1.00
H395   H     0.38911   0.45539   0.48795   0.00000  Uiso   1.00
H396   H     0.29368   0.45912   0.42819   0.00000  Uiso   1.00
H397   H     0.40028   0.47373   0.54608   0.00000  Uiso   1.00
H398   H     0.37758   0.51074   0.55672   0.00000  Uiso   1.00
H399   H     0.36637   0.46768   0.56845   0.00000  Uiso   1.00
H400   H     0.26207   0.52023   0.48250   0.00000  Uiso   1.00
H401   H     0.25071   0.48701   0.44942   0.00000  Uiso   1.00
H402   H     0.25111   0.47705   0.49418   0.00000  Uiso   1.00
O403   O     0.29009   0.43932   0.54807   0.00000  Uiso   1.00
O404   O     0.32482   0.55557   0.53615   0.00000  Uiso   1.00
H405   H     0.31365   0.59625   0.58425   0.00000  Uiso   1.00
H406   H     0.26346   0.43081   0.60049   0.00000  Uiso   1.00
H407   H     0.29308   0.61331   0.63686   0.00000  Uiso   1.00
H408   H     0.29201   0.54322   0.78582   0.00000  Uiso   1.00
H409   H     0.29593   0.54831   0.74121   0.00000  Uiso   1.00
H410   H     0.24805   0.58390   0.80757   0.00000  Uiso   1.00
H411   H     0.24336   0.44781   0.65337   0.00000  Uiso   1.00
H412   H     0.15224   0.56304   0.68057   0.00000  Uiso   1.00
O413   O     0.23120   0.48872   0.70071   0.00000  Uiso   1.00
O414   O     0.26432   0.60534   0.68783   0.00000  Uiso   1.00
H415   H     0.29854   0.58593   0.76998   0.00000  Uiso   1.00
H416   H     0.34228   0.47011   0.30182   0.00000  Uiso   1.00
C417   C     0.17384   0.54884   0.95294   0.00000  Uiso   1.00
C418   C     0.15575   0.52090   0.96244   0.00000  Uiso   1.00
C419   C     0.16702   0.50225  -0.00771   0.00000  Uiso   1.00
C420   C     0.19646   0.51244   0.01351   0.00000  Uiso   1.00
C421   C     0.21514   0.54012   0.00350   0.00000  Uiso   1.00
C422   C     0.20376   0.55785   0.97304   0.00000  Uiso   1.00
C423   C     0.14714   0.47231   0.00198   0.00000  Uiso   1.00
C424   C     0.24617   0.55205   0.02613   0.00000  Uiso   1.00
C425   C     0.22903   0.47081   0.04929   0.00000  Uiso   1.00
C426   C     0.24035   0.45645   0.08168   0.00000  Uiso   1.00
C427   C     0.22726   0.46802   0.11090   0.00000  Uiso   1.00
C428   C     0.20294   0.49333   0.10727   0.00000  Uiso   1.00
C429   C     0.19299   0.50756   0.07455   0.00000  Uiso   1.00
C430   C     0.26479   0.43138   0.08569   0.00000  Uiso   1.00
C431   C     0.27690   0.41891   0.11846   0.00000  Uiso   1.00
C432   C     0.26446   0.43081   0.14787   0.00000  Uiso   1.00
C433   C     0.23903   0.45484   0.14395   0.00000  Uiso   1.00
C434   C     0.22599   0.46648   0.17317   0.00000  Uiso   1.00
C435   C     0.20093   0.49083   0.16903   0.00000  Uiso   1.00
C436   C     0.18964   0.50424   0.13647   0.00000  Uiso   1.00
C437   C     0.27770   0.42044   0.18138   0.00000  Uiso   1.00
C438   C     0.23931   0.45448   0.20603   0.00000  Uiso   1.00
C439   C     0.28396   0.42831   0.24381   0.00000  Uiso   1.00
C440   C     0.26100   0.36667   0.24544   0.00000  Uiso   1.00
C441   C     0.30499   0.39068   0.29143   0.00000  Uiso   1.00
C442   C     0.30702   0.48961   0.24205   0.00000  Uiso   1.00
C443   C     0.32566   0.44954   0.29051   0.00000  Uiso   1.00
C444   C     0.30503   0.45527   0.25938   0.00000  Uiso   1.00
C445   C     0.28340   0.39606   0.26046   0.00000  Uiso   1.00
C446   C     0.32663   0.41709   0.30608   0.00000  Uiso   1.00
H447   H     0.28372   0.50344   0.24074   0.00000  Uiso   1.00
N448   N     0.20625   0.49636   0.04644   0.00000  Uiso   1.00
N449   N     0.26567   0.43322   0.20971   0.00000  Uiso   1.00
H450   H     0.31244   0.48530   0.21541   0.00000  Uiso   1.00
H451   H     0.13225   0.51455   0.94722   0.00000  Uiso   1.00
H452   H     0.21712   0.58020   0.96615   0.00000  Uiso   1.00
H453   H     0.12516   0.46718  -0.01773   0.00000  Uiso   1.00
H454   H     0.16191   0.44841   0.00406   0.00000  Uiso   1.00
H455   H     0.13915   0.47807   0.02721   0.00000  Uiso   1.00
H456   H     0.26381   0.53055   0.02895   0.00000  Uiso   1.00
H457   H     0.25749   0.57443   0.01497   0.00000  Uiso   1.00
H458   H     0.24116   0.56027   0.05215   0.00000  Uiso   1.00
O459   O     0.17022   0.53324   0.07087   0.00000  Uiso   1.00
O460   O     0.24129   0.45964   0.02049   0.00000  Uiso   1.00
H461   H     0.27513   0.42184   0.06365   0.00000  Uiso   1.00
H462   H     0.17069   0.52342   0.13438   0.00000  Uiso   1.00
H463   H     0.29632   0.40028   0.12071   0.00000  Uiso   1.00
H464   H     0.24614   0.35835   0.26495   0.00000  Uiso   1.00
H465   H     0.24415   0.37410   0.22192   0.00000  Uiso   1.00
H466   H     0.30576   0.36550   0.30334   0.00000  Uiso   1.00
H467   H     0.19047   0.50021   0.19105   0.00000  Uiso   1.00
H468   H     0.32643   0.50680   0.25646   0.00000  Uiso   1.00
O469   O     0.22716   0.46585   0.23485   0.00000  Uiso   1.00
O470   O     0.30405   0.39904   0.18590   0.00000  Uiso   1.00
H471   H     0.27550   0.34433   0.23851   0.00000  Uiso   1.00
H472   H     0.95740   0.22002   0.55683   0.00000  Uiso   1.00
C473   C     0.27280   0.29415   0.42444   0.00000  Uiso   1.00
C474   C     0.25855   0.26512   0.40538   0.00000  Uiso   1.00
C475   C     0.22974   0.25027   0.41300   0.00000  Uiso   1.00
C476   C     0.21441   0.26569   0.43914   0.00000  Uiso   1.00
C477   C     0.22873   0.29520   0.45812   0.00000  Uiso   1.00
C478   C     0.25816   0.30869   0.45105   0.00000  Uiso   1.00
C479   C     0.21540   0.21827   0.39318   0.00000  Uiso   1.00
C480   C     0.21218   0.31311   0.48495   0.00000  Uiso   1.00
C481   C     0.18405   0.23043   0.47369   0.00000  Uiso   1.00
C482   C     0.15464   0.21862   0.48266   0.00000  Uiso   1.00
C483   C     0.12520   0.22844   0.46256   0.00000  Uiso   1.00
C484   C     0.12560   0.24960   0.43377   0.00000  Uiso   1.00
C485   C     0.15560   0.26125   0.42610   0.00000  Uiso   1.00
C486   C     0.15398   0.19772   0.51148   0.00000  Uiso   1.00
C487   C     0.12448   0.18707   0.52051   0.00000  Uiso   1.00
C488   C     0.09497   0.19689   0.50079   0.00000  Uiso   1.00
C489   C     0.09531   0.21742   0.47154   0.00000  Uiso   1.00
C490   C     0.06583   0.22728   0.45150   0.00000  Uiso   1.00
C491   C     0.06652   0.24788   0.42246   0.00000  Uiso   1.00
C492   C     0.09607   0.25897   0.41373   0.00000  Uiso   1.00
C493   C     0.06504   0.18710   0.50985   0.00000  Uiso   1.00
C494   C     0.03642   0.21659   0.46140   0.00000  Uiso   1.00
C495   C     0.00642   0.18867   0.50183   0.00000  Uiso   1.00
C496   C     0.00464   0.12917   0.47107   0.00000  Uiso   1.00
C497   C     0.96496   0.14595   0.50975   0.00000  Uiso   1.00
C498   C     1.00797   0.24812   0.53153   0.00000  Uiso   1.00
C499   C     0.96670   0.20221   0.53904   0.00000  Uiso   1.00
C500   C     0.99316   0.21241   0.52362   0.00000  Uiso   1.00
C501   C     0.99172   0.15545   0.49430   0.00000  Uiso   1.00
C502   C     0.95296   0.16879   0.53287   0.00000  Uiso   1.00
H503   H     0.00645   0.26269   0.50720   0.00000  Uiso   1.00
N504   N     0.18403   0.25179   0.44619   0.00000  Uiso   1.00
N505   N     0.03656   0.19726   0.49038   0.00000  Uiso   1.00
H506   H     0.03381   0.24596   0.54353   0.00000  Uiso   1.00
H507   H     0.27004   0.25401   0.38479   0.00000  Uiso   1.00
H508   H     0.26907   0.33153   0.46534   0.00000  Uiso   1.00
H509   H     0.23082   0.20886   0.37436   0.00000  Uiso   1.00
H510   H     0.21306   0.19714   0.41148   0.00000  Uiso   1.00
H511   H     0.19108   0.22411   0.37860   0.00000  Uiso   1.00
H512   H     0.20975   0.29515   0.50616   0.00000  Uiso   1.00
H513   H     0.22608   0.33650   0.49653   0.00000  Uiso   1.00
H514   H     0.18774   0.32155   0.47270   0.00000  Uiso   1.00
O515   O     0.15639   0.28278   0.39878   0.00000  Uiso   1.00
O516   O     0.21296   0.22107   0.49302   0.00000  Uiso   1.00
H517   H     0.17627   0.18981   0.52734   0.00000  Uiso   1.00
H518   H     0.09573   0.27505   0.39136   0.00000  Uiso   1.00
H519   H     0.12485   0.17128   0.54311   0.00000  Uiso   1.00
H520   H    -0.01487   0.12102   0.44948   0.00000  Uiso   1.00
H521   H     0.02520   0.13951   0.45955   0.00000  Uiso   1.00
H522   H     0.95448   0.12007   0.50500   0.00000  Uiso   1.00
H523   H     0.04423   0.25574   0.40657   0.00000  Uiso   1.00
H524   H     0.99528   0.26326   0.54968   0.00000  Uiso   1.00
O525   O     0.00745   0.22605   0.44230   0.00000  Uiso   1.00
O526   O     0.06433   0.16776   0.53878   0.00000  Uiso   1.00
H527   H     0.01313   0.10603   0.48618   0.00000  Uiso   1.00
H528   H     0.07639   0.68284   0.76666   0.00000  Uiso   1.00
C529   C     0.94401   0.05289   0.66752   0.00000  Uiso   1.00
C530   C     0.95921   0.05145   0.70209   0.00000  Uiso   1.00
C531   C     0.97621   0.02165   0.71417   0.00000  Uiso   1.00
C532   C     0.97668   0.99242   0.69157   0.00000  Uiso   1.00
C533   C     0.96179   0.99423   0.65655   0.00000  Uiso   1.00
C534   C     0.94624   0.02476   0.64472   0.00000  Uiso   1.00
C535   C     0.99286   0.02076   0.75128   0.00000  Uiso   1.00
C536   C     0.96066   0.96304   0.63231   0.00000  Uiso   1.00
C537   C     0.97085   0.93883   0.72136   0.00000  Uiso   1.00
C538   C     0.98193   0.90630   0.73356   0.00000  Uiso   1.00
C539   C     1.01254   0.89524   0.72794   0.00000  Uiso   1.00
C540   C     0.03252   0.91806   0.70996   0.00000  Uiso   1.00
C541   C     1.02006   0.95035   0.69909   0.00000  Uiso   1.00
C542   C     0.96318   0.88457   0.75114   0.00000  Uiso   1.00
C543   C     0.97494   0.85234   0.76287   0.00000  Uiso   1.00
C544   C     1.00562   0.84115   0.75710   0.00000  Uiso   1.00
C545   C     0.02448   0.86277   0.73944   0.00000  Uiso   1.00
C546   C     0.05538   0.85219   0.73367   0.00000  Uiso   1.00
C547   C     0.07419   0.87406   0.71610   0.00000  Uiso   1.00
C548   C     0.06299   0.90652   0.70443   0.00000  Uiso   1.00
C549   C     1.01833   0.80925   0.76920   0.00000  Uiso   1.00
C550   C     0.06711   0.82008   0.74643   0.00000  Uiso   1.00
C551   C     0.06305   0.76934   0.78126   0.00000  Uiso   1.00
C552   C     0.07789   0.80527   0.83775   0.00000  Uiso   1.00
C553   C     0.08835   0.74177   0.83386   0.00000  Uiso   1.00
C554   C     0.04808   0.73385   0.72531   0.00000  Uiso   1.00
C555   C     0.07641   0.70766   0.78038   0.00000  Uiso   1.00
C556   C     0.06306   0.73711   0.76296   0.00000  Uiso   1.00
C557   C     0.07634   0.77162   0.81689   0.00000  Uiso   1.00
C558   C     0.08851   0.70978   0.81593   0.00000  Uiso   1.00
H559   H     0.06119   0.75101   0.70970   0.00000  Uiso   1.00
N560   N     0.98978   0.95994   0.70472   0.00000  Uiso   1.00
N561   N     0.04877   0.79961   0.76422   0.00000  Uiso   1.00
H562   H     1.02223   0.74151   0.72206   0.00000  Uiso   1.00
H563   H     0.95705   0.07316   0.71973   0.00000  Uiso   1.00
H564   H     0.93371   0.02579   0.61819   0.00000  Uiso   1.00
H565   H     0.99135   0.04617   0.76498   0.00000  Uiso   1.00
H566   H     0.98141   0.00062   0.76531   0.00000  Uiso   1.00
H567   H     0.01889   0.01466   0.75215   0.00000  Uiso   1.00
H568   H     0.94887   0.94073   0.64305   0.00000  Uiso   1.00
H569   H     0.94662   0.96828   0.60633   0.00000  Uiso   1.00
H570   H     0.98561   0.95579   0.62897   0.00000  Uiso   1.00
O571   O     0.03815   0.97228   0.68242   0.00000  Uiso   1.00
O572   O     0.94048   0.94940   0.72584   0.00000  Uiso   1.00
H573   H     0.93951   0.89243   0.75610   0.00000  Uiso   1.00
H574   H     0.07832   0.92248   0.69117   0.00000  Uiso   1.00
H575   H     0.96000   0.83640   0.77663   0.00000  Uiso   1.00
H576   H     0.10332   0.81075   0.85025   0.00000  Uiso   1.00
H577   H     0.06963   0.82788   0.82181   0.00000  Uiso   1.00
H578   H     0.09798   0.74362   0.86136   0.00000  Uiso   1.00
H579   H     0.09795   0.86619   0.71144   0.00000  Uiso   1.00
H580   H     0.04911   0.70675   0.71516   0.00000  Uiso   1.00
O581   O     0.09763   0.80983   0.74227   0.00000  Uiso   1.00
O582   O     1.00069   0.78828   0.78734   0.00000  Uiso   1.00
H583   H     0.06246   0.80303   0.85819   0.00000  Uiso   1.00
H584   H     0.87331   0.20361   0.69786   0.00000  Uiso   1.00
C585   C     0.07274   0.54343   0.82604   0.00000  Uiso   1.00
C586   C     0.07418   0.51990   0.79838   0.00000  Uiso   1.00
C587   C     0.05192   0.49224   0.79121   0.00000  Uiso   1.00
C588   C     0.02768   0.48790   0.81203   0.00000  Uiso   1.00
C589   C     0.02552   0.51192   0.83940   0.00000  Uiso   1.00
C590   C     0.04812   0.53959   0.84619   0.00000  Uiso   1.00
C591   C     0.05450   0.46692   0.76180   0.00000  Uiso   1.00
C592   C     0.99962   0.50767   0.86161   0.00000  Uiso   1.00
C593   C     0.01666   0.42733   0.82102   0.00000  Uiso   1.00
C594   C     0.00037   0.39596   0.80979   0.00000  Uiso   1.00
C595   C     0.97309   0.39659   0.78339   0.00000  Uiso   1.00
C596   C     0.96160   0.42857   0.76992   0.00000  Uiso   1.00
C597   C     0.97876   0.45928   0.78191   0.00000  Uiso   1.00
C598   C     0.01159   0.36397   0.82311   0.00000  Uiso   1.00
C599   C    -0.00317   0.33284   0.80929   0.00000  Uiso   1.00
C600   C     0.97054   0.33307   0.78183   0.00000  Uiso   1.00
C601   C     0.95814   0.36509   0.76939   0.00000  Uiso   1.00
C602   C     0.93177   0.36565   0.74192   0.00000  Uiso   1.00
C603   C     0.91950   0.39775   0.72988   0.00000  Uiso   1.00
C604   C     0.93425   0.42888   0.74376   0.00000  Uiso   1.00
C605   C     0.95743   0.30210   0.76513   0.00000  Uiso   1.00
C606   C     0.91951   0.33403   0.72599   0.00000  Uiso   1.00
C607   C     0.92645   0.27263   0.71466   0.00000  Uiso   1.00
C608   C     0.97321   0.28895   0.68277   0.00000  Uiso   1.00
C609   C     0.93748   0.23721   0.66570   0.00000  Uiso   1.00
C610   C     0.88030   0.25640   0.74618   0.00000  Uiso   1.00
C611   C     0.89340   0.22092   0.69541   0.00000  Uiso   1.00
C612   C     0.90055   0.24981   0.71835   0.00000  Uiso   1.00
C613   C     0.94514   0.26592   0.68823   0.00000  Uiso   1.00
C614   C     0.91154   0.21483   0.66872   0.00000  Uiso   1.00
H615   H     0.86844   0.28199   0.74248   0.00000  Uiso   1.00
N616   N     0.00643   0.45790   0.80599   0.00000  Uiso   1.00
N617   N     0.93345   0.30325   0.73675   0.00000  Uiso   1.00
H618   H     0.89591   0.25627   0.77200   0.00000  Uiso   1.00
H619   H     0.09321   0.52260   0.78280   0.00000  Uiso   1.00
H620   H     0.04704   0.55757   0.86774   0.00000  Uiso   1.00
H621   H     0.07442   0.47422   0.74763   0.00000  Uiso   1.00
H622   H     0.05932   0.44049   0.77198   0.00000  Uiso   1.00
H623   H     0.03146   0.46634   0.74307   0.00000  Uiso   1.00
H624   H     1.00238   0.48235   0.87469   0.00000  Uiso   1.00
H625   H     1.00105   0.52865   0.88185   0.00000  Uiso   1.00
H626   H     0.97531   0.50839   0.84520   0.00000  Uiso   1.00
O627   O     0.96896   0.49049   0.76781   0.00000  Uiso   1.00
O628   O     0.04424   0.42701   0.84551   0.00000  Uiso   1.00
H629   H     0.03239   0.36283   0.84357   0.00000  Uiso   1.00
H630   H     0.92469   0.45313   0.73329   0.00000  Uiso   1.00
H631   H     0.00672   0.30862   0.81949   0.00000  Uiso   1.00
H632   H     0.96869   0.29902   0.65603   0.00000  Uiso   1.00
H633   H     0.97736   0.31155   0.70118   0.00000  Uiso   1.00
H634   H     0.95186   0.23250   0.64540   0.00000  Uiso   1.00
H635   H     0.89906   0.39891   0.70903   0.00000  Uiso   1.00
H636   H     0.86108   0.23614   0.74550   0.00000  Uiso   1.00
O637   O     0.89506   0.33419   0.69789   0.00000  Uiso   1.00
O638   O     0.97040   0.27075   0.77563   0.00000  Uiso   1.00
H639   H    -0.00427   0.27345   0.68600   0.00000  Uiso   1.00
H640   H     0.05372   0.72342   0.95574   0.00000  Uiso   1.00
C641   C     0.72339   0.78769   0.07311   0.00000  Uiso   1.00
C642   C     0.74226   0.76502   0.09512   0.00000  Uiso   1.00
C643   C     0.77143   0.75229   0.08667   0.00000  Uiso   1.00
C644   C     0.78253   0.76385   0.05653   0.00000  Uiso   1.00
C645   C     0.76325   0.78657   0.03418   0.00000  Uiso   1.00
C646   C     0.73345   0.79753   0.04230   0.00000  Uiso   1.00
C647   C     0.79061   0.72665   0.10990   0.00000  Uiso   1.00
C648   C     0.77485   0.80050   0.00261   0.00000  Uiso   1.00
C649   C     0.81513   0.72852   0.02354   0.00000  Uiso   1.00
C650   C     0.84513   0.71897   0.01467   0.00000  Uiso   1.00
C651   C     0.87379   0.73404   0.03341   0.00000  Uiso   1.00
C652   C     0.87203   0.75865   0.06027   0.00000  Uiso   1.00
C653   C     0.84139   0.76848   0.06722   0.00000  Uiso   1.00
C654   C     0.84713   0.69491   0.98752   0.00000  Uiso   1.00
C655   C     0.87721   0.68615   0.97887   0.00000  Uiso   1.00
C656   C     0.90597   0.70078   0.99762   0.00000  Uiso   1.00
C657   C     0.90429   0.72450   0.02524   0.00000  Uiso   1.00
C658   C     0.93301   0.73870   0.04470   0.00000  Uiso   1.00
C659   C     0.93100   0.76286   0.07176   0.00000  Uiso   1.00
C660   C     0.90084   0.77293   0.07930   0.00000  Uiso   1.00
C661   C     0.93649   0.69228   0.98951   0.00000  Uiso   1.00
C662   C     0.96307   0.72821   0.03662   0.00000  Uiso   1.00
C663   C     0.99523   0.69542   1.00080   0.00000  Uiso   1.00
C664   C     0.98874   0.63571   0.02628   0.00000  Uiso   1.00
C665   C     0.03231   0.64906   0.99180   0.00000  Uiso   1.00
C666   C     1.00206   0.75500   0.97600   0.00000  Uiso   1.00
C667   C     0.04066   0.70639   0.97051   0.00000  Uiso   1.00
C668   C     0.01324   0.71846   0.98333   0.00000  Uiso   1.00
C669   C     1.00586   0.66092   1.00637   0.00000  Uiso   1.00
C670   C     0.04935   0.67149   0.97347   0.00000  Uiso   1.00
H671   H     1.00329   0.77024   1.00064   0.00000  Uiso   1.00
N672   N     0.81372   0.75325   0.04905   0.00000  Uiso   1.00
N673   N     0.96429   0.70570   1.00918   0.00000  Uiso   1.00
H674   H     0.97672   0.75448   0.96197   0.00000  Uiso   1.00
H675   H     0.73421   0.75740   0.11886   0.00000  Uiso   1.00
H676   H     0.71887   0.81545   0.02558   0.00000  Uiso   1.00
H677   H     0.77773   0.71905   0.13133   0.00000  Uiso   1.00
H678   H     0.79449   0.70280   0.09463   0.00000  Uiso   1.00
H679   H     0.81446   0.73815   0.12156   0.00000  Uiso   1.00
H680   H     0.77737   0.77898   0.98388   0.00000  Uiso   1.00
H681   H     0.75761   0.81946  -0.01085   0.00000  Uiso   1.00
H682   H     0.79865   0.81396   0.01039   0.00000  Uiso   1.00
O683   O     0.83919   0.79362   0.09223   0.00000  Uiso   1.00
O684   O     0.78705   0.71310   0.00642   0.00000  Uiso   1.00
H685   H     0.82546   0.68299   0.97268   0.00000  Uiso   1.00
H686   H     0.90023   0.79176   0.10023   0.00000  Uiso   1.00
H687   H     0.87783   0.66771   0.95760   0.00000  Uiso   1.00
H688   H     1.00663   0.62424   0.04692   0.00000  Uiso   1.00
H689   H     0.96983   0.64822   0.03903   0.00000  Uiso   1.00
H690   H     0.03915   0.62201   0.99397   0.00000  Uiso   1.00
H691   H     0.95272   0.77429   0.08699   0.00000  Uiso   1.00
H692   H     0.01743   0.76862   0.95975   0.00000  Uiso   1.00
O693   O     0.99131   0.74031   0.05651   0.00000  Uiso   1.00
O694   O     0.93847   0.67017   0.96184   0.00000  Uiso   1.00
H695   H     0.97720   0.61462   1.00842   0.00000  Uiso   1.00
H696   H     0.48157   0.49725   0.39752   0.00000  Uiso   1.00
C697   C     0.58476   0.79282   0.17134   0.00000  Uiso   1.00
C698   C     0.57824   0.75986   0.15569   0.00000  Uiso   1.00
C699   C     0.56617   0.73294   0.17354   0.00000  Uiso   1.00
C700   C     0.56166   0.73875   0.20821   0.00000  Uiso   1.00
C701   C     0.56774   0.77218   0.22397   0.00000  Uiso   1.00
C702   C     0.57873   0.79919   0.20507   0.00000  Uiso   1.00
C703   C     0.55799   0.69824   0.15542   0.00000  Uiso   1.00
C704   C     0.56318   0.77897   0.26091   0.00000  Uiso   1.00
C705   C     0.57447   0.68671   0.24098   0.00000  Uiso   1.00
C706   C     0.56511   0.65693   0.25712   0.00000  Uiso   1.00
C707   C     0.53221   0.65205   0.25989   0.00000  Uiso   1.00
C708   C     0.50927   0.67694   0.24668   0.00000  Uiso   1.00
C709   C     0.51970   0.70604   0.23021   0.00000  Uiso   1.00
C710   C     0.58773   0.63176   0.27003   0.00000  Uiso   1.00
C711   C     0.57776   0.60194   0.28525   0.00000  Uiso   1.00
C712   C     0.54499   0.59671   0.28805   0.00000  Uiso   1.00
C713   C     0.52216   0.62198   0.27555   0.00000  Uiso   1.00
C714   C     0.48926   0.61709   0.27836   0.00000  Uiso   1.00
C715   C     0.46665   0.64232   0.26554   0.00000  Uiso   1.00
C716   C     0.47653   0.67186   0.24976   0.00000  Uiso   1.00
C717   C     0.53432   0.56665   0.30278   0.00000  Uiso   1.00
C718   C     0.47981   0.58685   0.29372   0.00000  Uiso   1.00
C719   C     0.49157   0.53096   0.31972   0.00000  Uiso   1.00
C720   C     0.47380   0.50486   0.25862   0.00000  Uiso   1.00
C721   C     0.46214   0.47587   0.31167   0.00000  Uiso   1.00
C722   C     0.51002   0.55667   0.38020   0.00000  Uiso   1.00
C723   C     0.48063   0.49901   0.36976   0.00000  Uiso   1.00
C724   C     0.49419   0.52809   0.35609   0.00000  Uiso   1.00
C725   C     0.47631   0.50401   0.29749   0.00000  Uiso   1.00
C726   C     0.46371   0.47351   0.34760   0.00000  Uiso   1.00
H727   H     0.49736   0.58150   0.37398   0.00000  Uiso   1.00
N728   N     0.55177   0.71026   0.22750   0.00000  Uiso   1.00
N729   N     0.50226   0.56231   0.30537   0.00000  Uiso   1.00
H730   H     0.53586   0.55967   0.37727   0.00000  Uiso   1.00
H731   H     0.58222   0.75532   0.12924   0.00000  Uiso   1.00
H732   H     0.58355   0.82487   0.21691   0.00000  Uiso   1.00
H733   H     0.56172   0.69856   0.12794   0.00000  Uiso   1.00
H734   H     0.57362   0.67785   0.16864   0.00000  Uiso   1.00
H735   H     0.53215   0.69146   0.15575   0.00000  Uiso   1.00
H736   H     0.57861   0.76121   0.27826   0.00000  Uiso   1.00
H737   H     0.57000   0.80613   0.26961   0.00000  Uiso   1.00
H738   H     0.53739   0.77459   0.26344   0.00000  Uiso   1.00
O739   O     0.49752   0.72988   0.21599   0.00000  Uiso   1.00
O740   O     0.60643   0.69177   0.23788   0.00000  Uiso   1.00
H741   H     0.61316   0.63486   0.26814   0.00000  Uiso   1.00
H742   H     0.45842   0.69063   0.23991   0.00000  Uiso   1.00
H743   H     0.59581   0.58298   0.29474   0.00000  Uiso   1.00
H744   H     0.44792   0.50656   0.24653   0.00000  Uiso   1.00
H745   H     0.48730   0.52710   0.25006   0.00000  Uiso   1.00
H746   H     0.44930   0.45590   0.29451   0.00000  Uiso   1.00
H747   H     0.44122   0.63922   0.26745   0.00000  Uiso   1.00
H748   H     0.50908   0.55107   0.40774   0.00000  Uiso   1.00
O749   O     0.44783   0.58167   0.29668   0.00000  Uiso   1.00
O750   O     0.55607   0.54131   0.31419   0.00000  Uiso   1.00
H751   H     0.48394   0.48063   0.24898   0.00000  Uiso   1.00
loop_
_geom_bond_atom_site_label_1
_geom_bond_atom_site_label_2
_geom_bond_distance
_geom_bond_site_symmetry_2
_ccdc_geom_bond_type
Ce0    O9      2.232   .     S
Ce0    O10     2.293   .     S
Ce0    O11     2.281   .     S
Ce0    O12     2.334   .     S
Ce0    O14     2.266   .     S
Ce0    O15     2.269   .     S
Ce0    O19     2.325   .     S
Ce1    O8      2.306   .     S
Ce1    O9      2.247   .     S
Ce1    O13     2.283   .     S
Ce1    O15     2.273   .     S
Ce1    O16     2.263   .     S
Ce1    O17     2.284   .     S
Ce1    O18     2.286   .     S
C2     O8      1.223   .     D
C2     O9      1.383   .     S
C2     C110    1.474   .     S
C3     O10     1.280   .     A
C3     O11     1.280   .     A
C3     C390    1.474   .     S
C4     O12     1.304   .     A
C4     O13     1.295   .     A
C4     C558    1.475   .     S
C5     O14     1.226   .     D
C5     O15     1.403   .     S
C5     C585    1.476   .     S
C6     O16     1.274   .     A
C6     O17     1.278   .     A
C6     C670    1.462   .     S
C7     O18     1.291   .     A
C7     O19     1.299   .     A
C7     C417    1.467   .     S
Ce20   O29     2.249   .     S
Ce20   O30     2.294   .     S
Ce20   O31     2.271   .     S
Ce20   O32     2.327   .     S
Ce20   O34     2.263   .     S
Ce20   O35     2.234   .     S
Ce20   O39     2.320   .     S
Ce21   O28     2.325   .     S
Ce21   O29     2.298   .     S
Ce21   O33     2.275   .     S
Ce21   O35     2.274   .     S
Ce21   O36     2.271   .     S
Ce21   O37     2.268   .     S
Ce21   O38     2.348   .     S
C22    O28     1.215   .     D
C22    O29     1.374   .     S
C22    C81     1.465   .     S
C23    O30     1.279   .     A
C23    O31     1.274   .     A
C23    C166    1.461   .     S
C24    O32     1.297   .     A
C24    O33     1.290   .     A
C24    C278    1.462   .     S
C25    O34     1.222   .     D
C25    O35     1.398   .     S
C25    C334    1.475   .     S
C26    O36     1.279   .     A
C26    O37     1.278   .     A
C26    C641    1.466   .     S
C27    O38     1.312   .     A
C27    O39     1.303   .     A
C27    C697    1.467   .     S
Ce40   O49     2.231   .     S
Ce40   O50     2.298   .     S
Ce40   O51     2.274   .     S
Ce40   O52     2.317   .     S
Ce40   O54     2.274   .     S
Ce40   O55     2.226   .     S
Ce40   O59     2.333   .     S
Ce41   O48     2.347   .     S
Ce41   O49     2.297   .     S
Ce41   O53     2.304   .     S
Ce41   O55     2.273   .     S
Ce41   O56     2.267   .     S
Ce41   O57     2.280   .     S
Ce41   O58     2.322   .     S
C42    O48     1.207   .     D
C42    O49     1.359   .     S
C42    C305    1.472   .     S
C43    O50     1.281   .     A
C43    O51     1.278   .     A
C43    C502    1.474   .     S
C44    O52     1.303   .     A
C44    O53     1.300   .     A
C44    C529    1.467   .     S
C45    O54     1.226   .     D
C45    O55     1.398   .     S
C45    C614    1.476   .     S
C46    O56     1.276   .     A
C46    O57     1.279   .     A
C46    C249    1.474   .     S
C47    O58     1.304   .     A
C47    O59     1.303   .     A
C47    C193    1.478   .     S
Ce60   O69     2.248   .     S
Ce60   O70     2.304   .     S
Ce60   O71     2.272   .     S
Ce60   O72     2.324   .     S
Ce60   O74     2.275   .     S
Ce60   O75     2.240   .     S
Ce60   O79     2.321   .     S
Ce61   O68     2.332   .     S
Ce61   O69     2.294   .     S
Ce61   O73     2.289   .     S
Ce61   O75     2.262   .     S
Ce61   O76     2.274   .     S
Ce61   O77     2.277   .     S
Ce61   O78     2.355   .     S
C62    O68     1.218   .     D
C62    O69     1.374   .     S
C62    C222    1.475   .     S
C63    O70     1.278   .     A
C63    O71     1.272   .     A
C63    C726    1.470   .     S
C64    O72     1.298   .     A
C64    O73     1.293   .     A
C64    C361    1.469   .     S
C65    O74     1.218   .     D
C65    O75     1.391   .     S
C65    C446    1.473   .     S
C66    O76     1.278   .     A
C66    O77     1.279   .     A
C66    C473    1.467   .     S
C67    O78     1.314   .     A
C67    O79     1.305   .     A
C67    C137    1.478   .     S
H80    C107    1.083   .     S
C81    C82     1.398   .     A
C81    C86     1.399   .     A
C82    C83     1.404   .     A
C82    H115    1.084   .     S
C83    C84     1.413   .     A
C83    C87     1.504   1_554 S
C84    C85     1.411   .     A
C84    N112    1.439   .     S
C85    C86     1.400   .     A
C85    C88     1.506   .     S
C86    H116    1.080   .     S
C87    H117    1.111   .     S
C87    H118    1.110   .     S
C87    H119    1.110   .     S
C87    C83     1.504   1_556 S
C88    H120    1.110   .     S
C88    H121    1.111   .     S
C88    H122    1.110   .     S
C89    C90     1.405   .     A
C89    N112    1.369   .     A
C89    O124    1.373   .     S
C90    C91     1.409   .     A
C90    C94     1.405   .     A
C91    C92     1.409   1_554 A
C91    C97     1.414   1_554 A
C92    C100    1.405   .     A
C92    C91     1.409   1_556 A
C92    C93     1.405   1_556 A
C93    N112    1.369   .     A
C93    O123    1.373   .     S
C93    C92     1.405   1_554 A
C94    H125    1.083   .     S
C94    C95     1.397   1_554 A
C95    C96     1.405   .     A
C95    H127    1.083   .     S
C95    C94     1.397   1_556 A
C96    C97     1.409   .     A
C96    C101    1.405   .     A
C97    C98     1.409   .     A
C97    C91     1.414   1_556 A
C98    C99     1.405   .     A
C98    C102    1.406   .     A
C99    C100    1.397   .     A
C99    H131    1.083   .     S
C100   H126    1.083   .     S
C101   N113    1.370   .     A
C101   O134    1.373   .     S
C102   N113    1.370   .     A
C102   O133    1.373   .     S
C103   C108    1.413   .     A
C103   C109    1.413   .     A
C103   N113    1.440   .     S
C104   C109    1.507   .     S
C104   H128    1.111   .     S
C104   H129    1.108   .     S
C104   H135    1.111   .     S
C105   C109    1.399   .     A
C105   C110    1.402   .     A
C105   H130    1.084   .     S
C106   H111    1.110   .     S
C106   H114    1.110   .     S
C106   H132    1.111   .     S
C106   C108    1.504   1_554 S
C107   C108    1.405   .     A
C107   C110    1.401   .     A
C108   C106    1.504   1_556 S
H136   C163    1.084   .     S
C137   C138    1.403   .     A
C137   C142    1.403   .     A
C138   C139    1.401   .     A
C138   H171    1.084   .     S
C139   C140    1.410   .     A
C139   C143    1.505   .     S
C140   C141    1.412   .     A
C140   N168    1.441   .     S
C141   C142    1.405   .     A
C141   C144    1.505   .     S
C142   H172    1.084   .     S
C143   H173    1.111   .     S
C143   H174    1.110   .     S
C143   H175    1.110   .     S
C144   H176    1.111   .     S
C144   H177    1.111   .     S
C144   H178    1.110   .     S
C145   C146    1.405   .     A
C145   N168    1.370   .     A
C145   O180    1.373   .     S
C146   C147    1.409   .     A
C146   C150    1.406   .     A
C147   C148    1.410   .     A
C147   C153    1.413   .     A
C148   C149    1.405   .     A
C148   C156    1.405   .     A
C149   N168    1.370   .     A
C149   O179    1.373   .     S
C150   C151    1.397   .     A
C150   H181    1.083   .     S
C151   C152    1.405   .     A
C151   H183    1.084   .     S
C152   C153    1.410   .     A
C152   C157    1.405   .     A
C153   C154    1.409   .     A
C154   C155    1.406   .     A
C154   C158    1.404   .     A
C155   C156    1.396   .     A
C155   H187    1.083   .     S
C156   H182    1.083   .     S
C157   N169    1.369   .     A
C157   O190    1.373   .     S
C158   N169    1.371   .     A
C158   O189    1.373   .     S
C159   C164    1.414   .     A
C159   N169    1.440   .     S
C159   C165    1.415   1_545 A
C160   C165    1.506   .     S
C160   H184    1.110   .     S
C160   H185    1.108   .     S
C160   H191    1.111   .     S
C161   C165    1.401   .     A
C161   C166    1.398   .     A
C161   H186    1.085   .     S
C162   C164    1.506   .     S
C162   H167    1.111   .     S
C162   H170    1.109   .     S
C162   H188    1.111   .     S
C163   C166    1.398   .     A
C163   C164    1.403   1_565 A
C164   C163    1.403   1_545 A
C165   C159    1.415   1_565 A
H192   C219    1.084   .     S
C193   C194    1.402   .     A
C193   C198    1.402   .     A
C194   C195    1.411   .     A
C194   H227    1.084   .     S
C195   C196    1.415   .     A
C195   C199    1.504   .     S
C196   C197    1.411   .     A
C196   N224    1.444   .     S
C197   C198    1.399   .     A
C197   C200    1.506   .     S
C198   H228    1.084   .     S
C199   H229    1.111   .     S
C199   H230    1.110   .     S
C199   H231    1.110   .     S
C200   H232    1.111   .     S
C200   H233    1.110   .     S
C200   H234    1.110   .     S
C201   C202    1.408   .     A
C201   N224    1.371   .     A
C201   O236    1.373   .     S
C202   C203    1.409   .     A
C202   C206    1.406   .     A
C203   C204    1.409   .     A
C203   C209    1.416   .     A
C204   C205    1.406   .     A
C204   C212    1.406   .     A
C205   N224    1.371   .     A
C205   O235    1.373   .     S
C206   C207    1.399   .     A
C206   H237    1.083   .     S
C207   C208    1.406   .     A
C207   H239    1.083   .     S
C208   C209    1.409   .     A
C208   C213    1.408   .     A
C209   C210    1.408   .     A
C210   C211    1.406   .     A
C210   C214    1.407   .     A
C211   C212    1.398   .     A
C211   H243    1.083   .     S
C212   H238    1.083   .     S
C213   N225    1.372   .     A
C213   O246    1.373   .     S
C214   N225    1.371   .     A
C214   O245    1.373   .     S
C215   C220    1.416   .     A
C215   C221    1.416   .     A
C215   N225    1.446   .     S
C216   C221    1.506   .     S
C216   H240    1.110   .     S
C216   H241    1.108   .     S
C216   H247    1.111   .     S
C217   C221    1.402   .     A
C217   C222    1.400   .     A
C217   H242    1.084   .     S
C218   C220    1.506   .     S
C218   H223    1.110   .     S
C218   H226    1.109   .     S
C218   H244    1.110   .     S
C219   C220    1.406   .     A
C219   C222    1.401   .     A
H248   C275    1.084   .     S
C249   C250    1.402   .     A
C249   C254    1.402   .     A
C250   C251    1.403   .     A
C250   H283    1.083   .     S
C251   C252    1.412   .     A
C251   C255    1.504   1_545 S
C252   C253    1.410   .     A
C252   N280    1.439   .     S
C253   C254    1.400   .     A
C253   C256    1.506   .     S
C254   H284    1.084   .     S
C255   H285    1.110   .     S
C255   H286    1.110   .     S
C255   C251    1.504   1_565 S
C255   H287    1.110   1_565 S
C256   H288    1.110   .     S
C256   H289    1.111   .     S
C256   H290    1.110   .     S
C257   N280    1.369   .     A
C257   C258    1.404   1_545 A
C257   O292    1.373   1_545 S
C258   C262    1.404   .     A
C258   C257    1.404   1_565 A
C258   C259    1.409   1_565 A
C259   C260    1.410   .     A
C259   C258    1.409   1_545 A
C259   C265    1.418   1_545 A
C260   C261    1.404   .     A
C260   C268    1.403   .     A
C261   N280    1.369   .     A
C261   O291    1.373   .     S
C262   C263    1.395   .     A
C262   H293    1.084   .     S
C263   C264    1.406   .     A
C263   H295    1.083   .     S
C264   C265    1.416   .     A
C264   C269    1.408   .     A
C265   C259    1.418   1_565 A
C265   C266    1.356   1_565 D
C266   C267    1.406   .     A
C266   C265    1.356   1_545 D
C266   C270    1.479   1_545 S
C267   C268    1.396   .     A
C267   H299    1.083   .     S
C268   H294    1.083   .     S
C269   N281    1.368   .     A
C269   O302    1.373   .     S
C270   N281    1.364   .     A
C270   C266    1.479   1_565 S
C270   O301    1.372   1_565 S
C271   C277    1.413   .     A
C271   N281    1.438   .     S
C271   C276    1.416   1_556 A
C272   C277    1.509   .     S
C272   H296    1.110   .     S
C272   H297    1.108   .     S
C272   H303    1.111   .     S
C273   C278    1.398   .     A
C273   H298    1.085   .     S
C273   C277    1.395   1_554 A
C274   H279    1.110   .     S
C274   H282    1.110   .     S
C274   H300    1.111   .     S
C274   C276    1.504   1_545 S
C275   C276    1.408   .     A
C275   C278    1.398   .     A
C276   C271    1.416   1_554 A
C276   C274    1.504   1_565 S
C277   C273    1.395   1_556 A
H287   C255    1.110   1_545 S
O292   C257    1.373   1_565 S
O301   C270    1.372   1_545 S
H304   C331    1.083   .     S
C305   C306    1.401   .     A
C305   C310    1.401   .     A
C306   C307    1.406   .     A
C306   H339    1.084   .     S
C307   C308    1.414   .     A
C307   C311    1.505   .     S
C308   C309    1.410   .     A
C308   N336    1.441   .     S
C309   C310    1.401   .     A
C309   C312    1.506   .     S
C310   H340    1.084   .     S
C311   H341    1.111   .     S
C311   H342    1.111   .     S
C311   H343    1.110   .     S
C312   H344    1.110   .     S
C312   H345    1.111   .     S
C312   H346    1.111   1_545 S
C313   C314    1.406   .     A
C313   N336    1.371   .     A
C313   O348    1.373   .     S
C314   C315    1.409   .     A
C314   C318    1.406   .     A
C315   C316    1.409   1_545 A
C315   C321    1.413   1_545 A
C316   C317    1.403   .     A
C316   C324    1.405   .     A
C316   C315    1.409   1_565 A
C317   O347    1.373   .     S
C317   N336    1.370   1_565 A
C318   C319    1.397   .     A
C318   H349    1.083   .     S
C319   C320    1.405   .     A
C319   H351    1.084   .     S
C320   C325    1.406   .     A
C320   C321    1.409   1_545 A
C321   C322    1.409   .     A
C321   C315    1.413   1_565 A
C321   C320    1.409   1_565 A
C322   C323    1.406   .     A
C322   C326    1.404   .     A
C323   C324    1.396   .     A
C323   H355    1.083   .     S
C324   H350    1.083   .     S
C325   O358    1.373   .     S
C325   N337    1.370   1_545 A
C326   N337    1.371   .     A
C326   O357    1.373   .     S
C327   C332    1.416   .     A
C327   C333    1.411   .     A
C327   N337    1.441   .     S
C328   C333    1.508   .     S
C328   H352    1.111   .     S
C328   H353    1.110   1_565 S
C328   H359    1.109   1_565 S
C329   C333    1.393   .     A
C329   C334    1.402   .     A
C329   H354    1.084   .     S
C330   C332    1.503   .     S
C330   H335    1.109   .     S
C330   H338    1.110   .     S
C330   H356    1.111   .     S
C331   C332    1.410   .     A
C331   C334    1.401   .     A
N336   C317    1.370   1_545 A
N337   C325    1.370   1_565 A
H346   C312    1.111   1_565 S
H353   C328    1.110   1_545 S
H359   C328    1.109   1_545 S
H360   C387    1.084   .     S
C361   C362    1.399   .     A
C361   C366    1.400   .     A
C362   C363    1.403   .     A
C362   H395    1.084   .     S
C363   C364    1.413   .     A
C363   C367    1.505   .     S
C364   C365    1.414   .     A
C364   N392    1.443   .     S
C365   C366    1.405   .     A
C365   C368    1.505   .     S
C366   H396    1.084   .     S
C367   H397    1.110   .     S
C367   H398    1.109   .     S
C367   H399    1.111   .     S
C368   H400    1.110   .     S
C368   H401    1.111   .     S
C368   H402    1.110   .     S
C369   C370    1.408   .     A
C369   N392    1.370   .     A
C369   O404    1.372   .     S
C370   C371    1.409   .     A
C370   C374    1.406   .     A
C371   C372    1.409   .     A
C371   C377    1.416   .     A
C372   C373    1.406   .     A
C372   C380    1.405   .     A
C373   N392    1.371   .     A
C373   O403    1.374   .     S
C374   C375    1.398   .     A
C374   H405    1.082   .     S
C375   C376    1.405   .     A
C375   H407    1.083   .     S
C376   C377    1.409   .     A
C376   C381    1.407   .     A
C377   C378    1.408   .     A
C378   C379    1.406   .     A
C378   C382    1.407   .     A
C379   C380    1.398   .     A
C379   H411    1.083   .     S
C380   H406    1.084   .     S
C381   N393    1.370   .     A
C381   O414    1.373   .     S
C382   N393    1.372   .     A
C382   O413    1.373   .     S
C383   C388    1.414   .     A
C383   C389    1.418   .     A
C383   N393    1.445   .     S
C384   C389    1.506   .     S
C384   H408    1.112   .     S
C384   H409    1.109   .     S
C384   H415    1.110   .     S
C385   C389    1.407   .     A
C385   C390    1.401   .     A
C385   H410    1.084   .     S
C386   C388    1.506   .     S
C386   H391    1.109   .     S
C386   H394    1.110   .     S
C386   H412    1.110   .     S
C387   C388    1.402   .     A
C387   C390    1.400   .     A
H416   C443    1.084   .     S
C417   C418    1.400   .     A
C417   C422    1.399   .     A
C418   H451    1.084   .     S
C418   C419    1.404   1_556 A
C419   C420    1.413   .     A
C419   C423    1.505   .     S
C419   C418    1.404   1_554 A
C420   C421    1.415   .     A
C420   N448    1.443   .     S
C421   C424    1.506   .     S
C421   C422    1.405   1_554 A
C422   H452    1.084   .     S
C422   C421    1.405   1_556 A
C423   H453    1.111   .     S
C423   H454    1.110   .     S
C423   H455    1.110   .     S
C424   H456    1.110   .     S
C424   H457    1.111   .     S
C424   H458    1.111   .     S
C425   C426    1.407   .     A
C425   N448    1.370   .     A
C425   O460    1.373   .     S
C426   C427    1.409   .     A
C426   C430    1.405   .     A
C427   C428    1.408   .     A
C427   C433    1.414   .     A
C428   C429    1.406   .     A
C428   C436    1.406   .     A
C429   N448    1.372   .     A
C429   O459    1.373   .     S
C430   C431    1.397   .     A
C430   H461    1.083   .     S
C431   C432    1.406   .     A
C431   H463    1.083   .     S
C432   C433    1.408   .     A
C432   C437    1.406   .     A
C433   C434    1.409   .     A
C434   C435    1.405   .     A
C434   C438    1.406   .     A
C435   C436    1.397   .     A
C435   H467    1.083   .     S
C436   H462    1.083   .     S
C437   N449    1.371   .     A
C437   O470    1.373   .     S
C438   N449    1.370   .     A
C438   O469    1.373   .     S
C439   C444    1.413   .     A
C439   C445    1.418   .     A
C439   N449    1.442   .     S
C440   C445    1.505   .     S
C440   H464    1.111   .     S
C440   H465    1.109   .     S
C440   H471    1.110   .     S
C441   C445    1.408   .     A
C441   C446    1.401   .     A
C441   H466    1.084   .     S
C442   C444    1.508   .     S
C442   H447    1.109   .     S
C442   H450    1.110   .     S
C442   H468    1.111   .     S
C443   C444    1.396   .     A
C443   C446    1.401   .     A
H472   C499    1.084   .     S
C473   C474    1.399   .     A
C473   C478    1.399   .     A
C474   C475    1.406   .     A
C474   H507    1.084   .     S
C475   C476    1.414   .     A
C475   C479    1.504   .     S
C476   C477    1.413   .     A
C476   N504    1.443   .     S
C477   C478    1.402   .     A
C477   C480    1.505   .     S
C478   H508    1.084   .     S
C479   H509    1.111   .     S
C479   H510    1.111   .     S
C479   H511    1.109   .     S
C480   H512    1.110   .     S
C480   H513    1.111   .     S
C480   H514    1.111   .     S
C481   C482    1.406   .     A
C481   N504    1.370   .     A
C481   O516    1.373   .     S
C482   C483    1.408   .     A
C482   C486    1.405   .     A
C483   C484    1.408   .     A
C483   C489    1.416   .     A
C484   C485    1.408   .     A
C484   C492    1.405   .     A
C485   N504    1.371   .     A
C485   O515    1.373   .     S
C486   C487    1.397   .     A
C486   H517    1.082   .     S
C487   C488    1.404   .     A
C487   H519    1.083   .     S
C488   C489    1.408   .     A
C488   C493    1.405   .     A
C489   C490    1.409   .     A
C490   C491    1.405   .     A
C490   C494    1.408   .     A
C491   C492    1.399   .     A
C491   H523    1.082   .     S
C492   H518    1.082   .     S
C493   N505    1.370   .     A
C493   O526    1.374   .     S
C494   N505    1.370   .     A
C494   O525    1.373   .     S
C495   N505    1.442   .     S
C495   C500    1.412   1_455 A
C495   C501    1.416   1_455 A
C496   H520    1.110   .     S
C496   H521    1.108   .     S
C496   H527    1.110   .     S
C496   C501    1.505   1_455 S
C497   C501    1.404   .     A
C497   C502    1.400   .     A
C497   H522    1.083   .     S
C498   C500    1.505   .     S
C498   H524    1.111   .     S
C498   H503    1.110   1_655 S
C498   H506    1.110   1_655 S
C499   C500    1.401   .     A
C499   C502    1.402   .     A
C500   C495    1.412   1_655 A
C501   C495    1.416   1_655 A
C501   C496    1.505   1_655 S
H503   C498    1.110   1_455 S
H506   C498    1.110   1_455 S
H528   C555    1.084   .     S
C529   C530    1.399   .     A
C529   C534    1.399   .     A
C530   C531    1.407   .     A
C530   H563    1.084   .     S
C531   C535    1.504   .     S
C531   C532    1.415   1_545 A
C532   C533    1.412   .     A
C532   N560    1.443   .     S
C532   C531    1.415   1_565 A
C533   C536    1.506   .     S
C533   C534    1.401   1_565 A
C534   H564    1.085   .     S
C534   C533    1.401   1_545 A
C535   H565    1.111   .     S
C535   H566    1.109   .     S
C535   H567    1.110   1_655 S
C536   H568    1.111   .     S
C536   H569    1.111   .     S
C536   H570    1.109   .     S
C537   C538    1.407   .     A
C537   N560    1.375   .     A
C537   O572    1.373   .     S
C538   C539    1.401   .     A
C538   C542    1.406   .     A
C539   C540    1.473   1_655 S
C539   C545    1.408   1_655 A
C540   C548    1.401   .     A
C540   C539    1.473   1_455 S
C540   C541    1.402   1_455 A
C541   N560    1.372   .     A
C541   C540    1.402   1_655 A
C541   O571    1.373   1_655 S
C542   C543    1.399   .     A
C542   H573    1.083   .     S
C543   C544    1.408   .     A
C543   H575    1.083   .     S
C544   C549    1.405   .     A
C544   C545    1.408   1_655 A
C545   C546    1.410   .     A
C545   C539    1.408   1_455 A
C545   C544    1.408   1_455 A
C546   C547    1.411   .     A
C546   C550    1.408   .     A
C547   C548    1.400   .     A
C547   H579    1.083   .     S
C548   H574    1.083   .     S
C549   O582    1.373   .     S
C549   N561    1.372   1_655 A
C550   N561    1.371   .     A
C550   O581    1.373   .     S
C551   C556    1.416   .     A
C551   C557    1.413   .     A
C551   N561    1.443   .     S
C552   C557    1.508   .     S
C552   H576    1.111   .     S
C552   H577    1.108   .     S
C552   H583    1.110   .     S
C553   C557    1.398   .     A
C553   C558    1.402   .     A
C553   H578    1.085   .     S
C554   C556    1.504   .     S
C554   H559    1.110   .     S
C554   H580    1.111   .     S
C554   H562    1.111   1_455 S
C555   C556    1.410   .     A
C555   C558    1.399   .     A
N561   C549    1.372   1_455 A
H562   C554    1.111   1_655 S
H567   C535    1.110   1_455 S
O571   C541    1.373   1_455 S
H584   C611    1.084   .     S
C585   C586    1.402   .     A
C585   C590    1.403   .     A
C586   C587    1.399   .     A
C586   H619    1.084   .     S
C587   C588    1.411   .     A
C587   C591    1.506   .     S
C588   C589    1.411   .     A
C588   N616    1.440   .     S
C589   C590    1.407   .     A
C589   C592    1.504   1_455 S
C590   H620    1.084   .     S
C591   H621    1.110   .     S
C591   H622    1.110   .     S
C591   H623    1.110   .     S
C592   H624    1.110   .     S
C592   H625    1.110   .     S
C592   H626    1.110   .     S
C592   C589    1.504   1_655 S
C593   C594    1.404   .     A
C593   N616    1.370   .     A
C593   O628    1.373   .     S
C594   C598    1.405   .     A
C594   C595    1.408   1_455 A
C595   C596    1.409   .     A
C595   C601    1.414   .     A
C595   C594    1.408   1_655 A
C596   C597    1.406   .     A
C596   C604    1.404   .     A
C597   O627    1.373   .     S
C597   N616    1.369   1_655 A
C598   C599    1.397   .     A
C598   H629    1.083   .     S
C599   H631    1.083   .     S
C599   C600    1.405   1_455 A
C600   C601    1.409   .     A
C600   C605    1.406   .     A
C600   C599    1.405   1_655 A
C601   C602    1.408   .     A
C602   C603    1.405   .     A
C602   C606    1.406   .     A
C603   C604    1.397   .     A
C603   H635    1.082   .     S
C604   H630    1.082   .     S
C605   N617    1.370   .     A
C605   O638    1.373   .     S
C606   N617    1.371   .     A
C606   O637    1.373   .     S
C607   C612    1.415   .     A
C607   C613    1.414   .     A
C607   N617    1.442   .     S
C608   C613    1.509   .     S
C608   H632    1.112   .     S
C608   H633    1.109   .     S
C608   H639    1.111   1_655 S
C609   C613    1.397   .     A
C609   C614    1.399   .     A
C609   H634    1.084   .     S
C610   C612    1.502   .     S
C610   H615    1.109   .     S
C610   H618    1.109   .     S
C610   H636    1.110   .     S
C611   C612    1.409   .     A
C611   C614    1.403   .     A
N616   C597    1.369   1_455 A
H639   C608    1.111   1_455 S
H640   C667    1.085   .     S
C641   C642    1.398   .     A
C641   C646    1.399   .     A
C642   C643    1.404   .     A
C642   H675    1.084   .     S
C643   C644    1.415   .     A
C643   C647    1.505   .     S
C644   C645    1.414   .     A
C644   N672    1.442   .     S
C645   C646    1.401   .     A
C645   C648    1.507   .     S
C646   H676    1.084   .     S
C647   H677    1.111   .     S
C647   H678    1.110   .     S
C647   H679    1.109   .     S
C648   H681    1.111   .     S
C648   H682    1.110   .     S
C648   H680    1.109   1_554 S
C649   C650    1.405   .     A
C649   N672    1.370   .     A
C649   O684    1.373   .     S
C650   C651    1.409   .     A
C650   C654    1.405   1_554 A
C651   C652    1.408   .     A
C651   C657    1.413   .     A
C652   C653    1.406   .     A
C652   C660    1.406   .     A
C653   N672    1.372   .     A
C653   O683    1.373   .     S
C654   C655    1.397   .     A
C654   H685    1.083   .     S
C654   C650    1.405   1_556 A
C655   C656    1.406   .     A
C655   H687    1.083   .     S
C656   C661    1.404   .     A
C656   C657    1.407   1_556 A
C657   C658    1.409   .     A
C657   C656    1.407   1_554 A
C658   C659    1.404   .     A
C658   C662    1.405   .     A
C659   C660    1.397   .     A
C659   H691    1.083   .     S
C660   H686    1.083   .     S
C661   N673    1.372   .     A
C661   O694    1.373   .     S
C662   O693    1.373   .     S
C662   N673    1.369   1_554 A
C663   C669    1.416   .     A
C663   N673    1.442   .     S
C663   C668    1.416   1_655 A
C664   H688    1.110   .     S
C664   H689    1.109   .     S
C664   C669    1.505   1_554 S
C664   H695    1.110   1_554 S
C665   C670    1.397   .     A
C665   H690    1.084   .     S
C665   C669    1.399   1_455 A
C666   H671    1.109   .     S
C666   H674    1.110   .     S
C666   C668    1.506   1_655 S
C666   H692    1.111   1_655 S
C667   C668    1.403   .     A
C667   C670    1.398   .     A
C668   C663    1.416   1_455 A
C668   C666    1.506   1_455 S
C669   C664    1.505   1_556 S
C669   C665    1.399   1_655 A
N673   C662    1.369   1_556 A
H680   C648    1.109   1_556 S
H692   C666    1.111   1_455 S
H695   C664    1.110   1_556 S
H696   C723    1.084   .     S
C697   C698    1.399   .     A
C697   C702    1.399   .     A
C698   C699    1.398   .     A
C698   H731    1.084   .     S
C699   C700    1.412   .     A
C699   C703    1.506   .     S
C700   C701    1.415   .     A
C700   N728    1.441   .     S
C701   C702    1.406   .     A
C701   C704    1.504   .     S
C702   H732    1.084   .     S
C703   H733    1.111   .     S
C703   H734    1.109   .     S
C703   H735    1.111   .     S
C704   H736    1.110   .     S
C704   H737    1.111   .     S
C704   H738    1.110   .     S
C705   C706    1.405   .     A
C705   N728    1.370   .     A
C705   O740    1.373   .     S
C706   C707    1.408   .     A
C706   C710    1.405   .     A
C707   C708    1.409   .     A
C707   C713    1.414   .     A
C708   C709    1.406   .     A
C708   C716    1.405   .     A
C709   N728    1.370   .     A
C709   O739    1.373   .     S
C710   C711    1.397   .     A
C710   H741    1.083   .     S
C711   C712    1.405   .     A
C711   H743    1.083   .     S
C712   C713    1.409   .     A
C712   C717    1.406   .     A
C713   C714    1.408   .     A
C714   C715    1.406   .     A
C714   C718    1.405   .     A
C715   C716    1.397   .     A
C715   H747    1.083   .     S
C716   H742    1.083   .     S
C717   N729    1.369   .     A
C717   O750    1.373   .     S
C718   N729    1.371   .     A
C718   O749    1.373   .     S
C719   C724    1.415   .     A
C719   C725    1.414   .     A
C719   N729    1.441   .     S
C720   C725    1.507   .     S
C720   H744    1.111   .     S
C720   H745    1.109   .     S
C720   H751    1.111   .     S
C721   C725    1.399   .     A
C721   C726    1.401   .     A
C721   H746    1.085   .     S
C722   C724    1.505   .     S
C722   H727    1.110   .     S
C722   H730    1.110   .     S
C722   H748    1.111   .     S
C723   C724    1.406   .     A
C723   C726    1.399   .     A
