data_lcy+N139+E229
_audit_creation_date              2025-01-21
_audit_creation_method            'Materials Studio'
_symmetry_space_group_name_H-M    'P1'
_symmetry_Int_Tables_number       1
_symmetry_cell_setting            triclinic
loop_
_symmetry_equiv_pos_as_xyz
  x,y,z
_cell_length_a                    36.7468
_cell_length_b                    36.3963
_cell_length_c                    38.2978
_cell_angle_alpha                 92.0058
_cell_angle_beta                  88.5960
_cell_angle_gamma                 88.2216
loop_
_atom_site_label
_atom_site_type_symbol
_atom_site_fract_x
_atom_site_fract_y
_atom_site_fract_z
_atom_site_U_iso_or_equiv
_atom_site_adp_type
_atom_site_occupancy
C0     C     0.04835   0.55703   0.84642   0.00000  Uiso   1.00
Sm1    Sm    0.12638   0.64231   0.86481   0.00000  Uiso   1.00
Sm2    Sm    0.11636   0.58471   0.84051   0.00000  Uiso   1.00
C3     C     0.13169   0.57666   0.91673   0.00000  Uiso   1.00
C4     C     0.17861   0.56023   0.80773   0.00000  Uiso   1.00
O5     O     0.18513   0.65898   0.86961   0.00000  Uiso   1.00
O6     O     0.14402   0.69603   0.88977   0.00000  Uiso   1.00
O7     O     0.09706   0.61547   0.79440   0.00000  Uiso   1.00
O8     O     0.11959   0.66793   0.81280   0.00000  Uiso   1.00
O9     O     0.06605   0.64581   0.86378   0.00000  Uiso   1.00
O10    O     0.08989   0.69065   0.88831   0.00000  Uiso   1.00
O11    O     0.06041   0.58171   0.86532   0.00000  Uiso   1.00
O12    O     0.07239   0.54341   0.82554   0.00000  Uiso   1.00
O13    O     0.12832   0.61182   0.91610   0.00000  Uiso   1.00
O14    O     0.13300   0.55722   0.88846   0.00000  Uiso   1.00
O15    O     0.17499   0.59134   0.82281   0.00000  Uiso   1.00
O16    O     0.14977   0.54249   0.80769   0.00000  Uiso   1.00
C17    C     0.17794   0.68990   0.88464   0.00000  Uiso   1.00
C18    C     0.10071   0.64979   0.79099   0.00000  Uiso   1.00
C19    C     0.06071   0.67700   0.87747   0.00000  Uiso   1.00
C20    C     0.63407   0.79988   0.19602   0.00000  Uiso   1.00
Sm21   Sm    0.71117   0.90704   0.11155   0.00000  Uiso   1.00
Sm22   Sm    0.62766   0.82123   0.13090   0.00000  Uiso   1.00
C23    C     0.69877   0.83066   0.08698   0.00000  Uiso   1.00
C24    C     0.60271   0.77436   0.08390   0.00000  Uiso   1.00
O25    O     0.66555   0.92414   0.07591   0.00000  Uiso   1.00
O26    O     0.71969   0.93579   0.06089   0.00000  Uiso   1.00
O27    O     0.61464   0.88067   0.14771   0.00000  Uiso   1.00
O28    O     0.64777   0.90978   0.10702   0.00000  Uiso   1.00
O29    O     0.69730   0.88765   0.16373   0.00000  Uiso   1.00
O30    O     0.70059   0.94659   0.15676   0.00000  Uiso   1.00
O31    O     0.65976   0.81372   0.17836   0.00000  Uiso   1.00
O32    O     0.60384   0.79783   0.17997   0.00000  Uiso   1.00
O33    O     0.72224   0.85406   0.08066   0.00000  Uiso   1.00
O34    O     0.66640   0.84253   0.09218   0.00000  Uiso   1.00
O35    O     0.58902   0.80701   0.08906   0.00000  Uiso   1.00
O36    O     0.62910   0.76582   0.10373   0.00000  Uiso   1.00
C37    C     0.68680   0.93527   0.05196   0.00000  Uiso   1.00
C38    C     0.62410   0.91009   0.13277   0.00000  Uiso   1.00
C39    C     0.69425   0.92016   0.17753   0.00000  Uiso   1.00
C40    C     0.84781   0.06328   0.55995   0.00000  Uiso   1.00
Sm41   Sm    0.91957   0.09571   0.64455   0.00000  Uiso   1.00
Sm42   Sm    0.83698   0.13367   0.58653   0.00000  Uiso   1.00
C43    C     0.91877   0.13845   0.57231   0.00000  Uiso   1.00
C44    C     0.81748   0.20225   0.61226   0.00000  Uiso   1.00
O45    O     0.89180   0.15114   0.65635   0.00000  Uiso   1.00
O46    O     0.94977   0.14729   0.65606   0.00000  Uiso   1.00
O47    O     0.80812   0.11243   0.63340   0.00000  Uiso   1.00
O48    O     0.86368   0.12431   0.64962   0.00000  Uiso   1.00
O49    O     0.96950   0.05880   0.63552   0.00000  Uiso   1.00
O50    O     0.96924   0.05887   0.63578   0.00000  Uiso   1.00
O51    O     0.86188   0.07606   0.58707   0.00000  Uiso   1.00
O52    O     0.82647   0.08662   0.54653   0.00000  Uiso   1.00
O53    O     0.91846   0.10730   0.58637   0.00000  Uiso   1.00
O54    O     0.88905   0.15210   0.56036   0.00000  Uiso   1.00
O55    O     0.80381   0.18811   0.58506   0.00000  Uiso   1.00
O56    O     0.84324   0.18289   0.62297   0.00000  Uiso   1.00
C57    C     0.92158   0.16821   0.65901   0.00000  Uiso   1.00
C58    C     0.83362   0.10801   0.65511   0.00000  Uiso   1.00
C59    C     0.98027   0.03642   0.65807   0.00000  Uiso   1.00
C60    C     0.35190   0.44569   0.30354   0.00000  Uiso   1.00
Sm61   Sm    0.39461   0.33315   0.44076   0.00000  Uiso   1.00
Sm62   Sm    0.38170   0.40213   0.34929   0.00000  Uiso   1.00
C63    C     0.43283   0.33137   0.36610   0.00000  Uiso   1.00
C64    C     0.44601   0.42098   0.31560   0.00000  Uiso   1.00
O65    O     0.42274   0.37421   0.47589   0.00000  Uiso   1.00
O66    O     0.44357   0.31928   0.47228   0.00000  Uiso   1.00
O67    O     0.40345   0.40572   0.40340   0.00000  Uiso   1.00
O68    O     0.39383   0.39371   0.45753   0.00000  Uiso   1.00
O69    O     0.34135   0.35066   0.42087   0.00000  Uiso   1.00
O70    O     0.34354   0.33043   0.47358   0.00000  Uiso   1.00
O71    O     0.35725   0.41124   0.29716   0.00000  Uiso   1.00
O72    O     0.35819   0.45659   0.33469   0.00000  Uiso   1.00
O73    O     0.43570   0.34296   0.39755   0.00000  Uiso   1.00
O74    O     0.40750   0.34335   0.34654   0.00000  Uiso   1.00
O75    O     0.43087   0.43955   0.34015   0.00000  Uiso   1.00
O76    O     0.42912   0.39256   0.31001   0.00000  Uiso   1.00
C77    C     0.44963   0.35232   0.48092   0.00000  Uiso   1.00
C78    C     0.38791   0.41512   0.43258   0.00000  Uiso   1.00
C79    C     0.32402   0.34351   0.44910   0.00000  Uiso   1.00
C80    C     0.53609   0.72202   0.02893   0.00000  Uiso   1.00
C81    C     0.55976   0.69836   0.00875   0.00000  Uiso   1.00
C82    C     0.59745   0.69988   0.01269   0.00000  Uiso   1.00
C83    C     0.61181   0.72452   0.03725   0.00000  Uiso   1.00
C84    C     0.58843   0.74860   0.05736   0.00000  Uiso   1.00
C85    C     0.55073   0.74759   0.05263   0.00000  Uiso   1.00
C86    C     0.49550   0.71773   0.02791   0.00000  Uiso   1.00
H87    H     0.54894   0.67828  -0.00944   0.00000  Uiso   1.00
H88    H     0.61551   0.68142  -0.00288   0.00000  Uiso   1.00
H89    H     0.64105   0.72501   0.04029   0.00000  Uiso   1.00
H90    H     0.53264   0.76558   0.06872   0.00000  Uiso   1.00
H91    H     0.48939   0.68946   0.03598   0.00000  Uiso   1.00
H92    H     0.48163   0.73752   0.04712   0.00000  Uiso   1.00
C93    C     0.26965   0.73424   0.89898   0.00000  Uiso   1.00
C94    C     0.24360   0.70773   0.89068   0.00000  Uiso   1.00
C95    C     0.31010   0.72599   0.89403   0.00000  Uiso   1.00
C96    C     0.36774   0.72586   0.92364   0.00000  Uiso   1.00
C97    C     0.38473   0.72498   0.95967   0.00000  Uiso   1.00
C98    C     0.25759   0.76948   0.91114   0.00000  Uiso   1.00
C99    C     0.22044   0.77802   0.91557   0.00000  Uiso   1.00
C100   C     0.20594   0.71653   0.89465   0.00000  Uiso   1.00
H101   H     0.27702   0.79051   0.91686   0.00000  Uiso   1.00
H102   H     0.21138   0.80521   0.92509   0.00000  Uiso   1.00
H103   H     0.16612   0.75923   0.91081   0.00000  Uiso   1.00
H104   H     0.25264   0.68052   0.88109   0.00000  Uiso   1.00
H105   H     0.32153   0.74677   0.87653   0.00000  Uiso   1.00
C106   C     0.44199   0.72130   0.99392   0.00000  Uiso   1.00
C107   C     0.42648   0.72451   0.95746   0.00000  Uiso   1.00
H108   H     0.37664   0.70058   0.90816   0.00000  Uiso   1.00
H109   H     0.37495   0.74973   0.97544   0.00000  Uiso   1.00
H110   H     0.37568   0.70004   0.97297   0.00000  Uiso   1.00
H111   H     0.37711   0.75049   0.90998   0.00000  Uiso   1.00
H112   H     0.31522   0.69829   0.88138   0.00000  Uiso   1.00
H113   H     0.42997   0.74399   0.01119   0.00000  Uiso   1.00
H114   H     0.43414   0.69439   0.00430   0.00000  Uiso   1.00
N115   N     0.48175   0.72368   0.99281   0.00000  Uiso   1.00
N116   N     0.32786   0.72768   0.92793   0.00000  Uiso   1.00
C117   C     0.19480   0.75177   0.90747   0.00000  Uiso   1.00
C118   C     0.48751   0.24888   0.32571   0.00000  Uiso   1.00
C119   C     0.52291   0.26029   0.33273   0.00000  Uiso   1.00
C120   C     0.52847   0.29472   0.34842   0.00000  Uiso   1.00
C121   C     0.49888   0.31811   0.35781   0.00000  Uiso   1.00
C122   C     0.46314   0.30753   0.35138   0.00000  Uiso   1.00
C123   C     0.45748   0.27289   0.33513   0.00000  Uiso   1.00
C124   C     0.48174   0.20964   0.31287   0.00000  Uiso   1.00
H125   H     0.54634   0.24212   0.32700   0.00000  Uiso   1.00
H126   H     0.55581   0.30288   0.35428   0.00000  Uiso   1.00
H127   H     0.50385   0.34432   0.37087   0.00000  Uiso   1.00
H128   H     0.42988   0.26395   0.33168   0.00000  Uiso   1.00
H129   H     0.48004   0.19258   0.33638   0.00000  Uiso   1.00
H130   H     0.45551   0.20804   0.29915   0.00000  Uiso   1.00
C131   C     0.59033   0.00306   0.17290   0.00000  Uiso   1.00
C132   C     0.61341   0.97235   0.16373   0.00000  Uiso   1.00
C133   C     0.60368   0.03494   0.19510   0.00000  Uiso   1.00
C134   C     0.57619   0.08769   0.22809   0.00000  Uiso   1.00
C135   C     0.54770   0.09988   0.25662   0.00000  Uiso   1.00
C136   C     0.55533   0.00500   0.15909   0.00000  Uiso   1.00
C137   C     0.54314   0.97639   0.13759   0.00000  Uiso   1.00
C138   C     0.60153   0.94378   0.14133   0.00000  Uiso   1.00
H139   H     0.53738   0.02865   0.16518   0.00000  Uiso   1.00
H140   H     0.51581   0.97783   0.12772   0.00000  Uiso   1.00
H141   H     0.55595   0.92389   0.11237   0.00000  Uiso   1.00
H142   H     0.64022   0.97108   0.17427   0.00000  Uiso   1.00
H143   H     0.61057   0.05715   0.17704   0.00000  Uiso   1.00
C144   C     0.51460   0.15551   0.28764   0.00000  Uiso   1.00
C145   C     0.54345   0.14213   0.25996   0.00000  Uiso   1.00
H146   H     0.60368   0.09580   0.23658   0.00000  Uiso   1.00
H147   H     0.52102   0.08828   0.24997   0.00000  Uiso   1.00
H148   H     0.55627   0.08900   0.28201   0.00000  Uiso   1.00
H149   H     0.56964   0.10179   0.20358   0.00000  Uiso   1.00
H150   H     0.62899   0.02679   0.20859   0.00000  Uiso   1.00
H151   H     0.48792   0.14382   0.28100   0.00000  Uiso   1.00
H152   H     0.52300   0.14575   0.31354   0.00000  Uiso   1.00
N153   N     0.51153   0.19593   0.28887   0.00000  Uiso   1.00
N154   N     0.57583   0.04759   0.22159   0.00000  Uiso   1.00
C155   C     0.56602   0.94595   0.12882   0.00000  Uiso   1.00
C156   C     0.75460   0.28153   0.64514   0.00000  Uiso   1.00
C157   C     0.76734   0.28677   0.67911   0.00000  Uiso   1.00
C158   C     0.79748   0.26649   0.68998   0.00000  Uiso   1.00
C159   C     0.81517   0.24077   0.66710   0.00000  Uiso   1.00
C160   C     0.80257   0.23455   0.63297   0.00000  Uiso   1.00
C161   C     0.77267   0.25560   0.62189   0.00000  Uiso   1.00
C162   C     0.72282   0.30494   0.63400   0.00000  Uiso   1.00
H163   H     0.75374   0.30647   0.69730   0.00000  Uiso   1.00
H164   H     0.80668   0.27015   0.71649   0.00000  Uiso   1.00
H165   H     0.83762   0.22444   0.67685   0.00000  Uiso   1.00
H166   H     0.76285   0.25088   0.59574   0.00000  Uiso   1.00
H167   H     0.70511   0.31344   0.65705   0.00000  Uiso   1.00
H168   H     0.73403   0.33007   0.62265   0.00000  Uiso   1.00
C169   C     0.55168   0.34930   0.47685   0.00000  Uiso   1.00
C170   C     0.51595   0.33903   0.48476   0.00000  Uiso   1.00
C171   C     0.58190   0.32057   0.47323   0.00000  Uiso   1.00
C172   C     0.61900   0.28342   0.51079   0.00000  Uiso   1.00
C173   C     0.63959   0.30915   0.53526   0.00000  Uiso   1.00
C174   C     0.55848   0.38612   0.47027   0.00000  Uiso   1.00
C175   C     0.52997   0.41238   0.47165   0.00000  Uiso   1.00
C176   C     0.48693   0.36514   0.48544   0.00000  Uiso   1.00
H177   H     0.58568   0.39432   0.46302   0.00000  Uiso   1.00
H178   H     0.53531   0.44043   0.46515   0.00000  Uiso   1.00
H179   H     0.47250   0.42250   0.47758   0.00000  Uiso   1.00
H180   H     0.51055   0.31022   0.48792   0.00000  Uiso   1.00
H181   H     0.60839   0.33397   0.46839   0.00000  Uiso   1.00
C182   C     0.68227   0.30942   0.58588   0.00000  Uiso   1.00
C183   C     0.66352   0.28621   0.55859   0.00000  Uiso   1.00
H184   H     0.61536   0.25641   0.52284   0.00000  Uiso   1.00
H185   H     0.65665   0.32769   0.51972   0.00000  Uiso   1.00
H186   H     0.62003   0.32643   0.55190   0.00000  Uiso   1.00
H187   H     0.63499   0.27775   0.48593   0.00000  Uiso   1.00
H188   H     0.57673   0.30192   0.45035   0.00000  Uiso   1.00
H189   H     0.70217   0.32675   0.57228   0.00000  Uiso   1.00
H190   H     0.66191   0.32714   0.60113   0.00000  Uiso   1.00
N191   N     0.70098   0.28451   0.60901   0.00000  Uiso   1.00
N192   N     0.58265   0.29912   0.50478   0.00000  Uiso   1.00
C193   C     0.49441   0.40209   0.47933   0.00000  Uiso   1.00
C194   C     0.80389   0.06979   0.74079   0.00000  Uiso   1.00
C195   C     0.82866   0.03972   0.74277   0.00000  Uiso   1.00
C196   C     0.85392   0.03174   0.71556   0.00000  Uiso   1.00
C197   C     0.85530   0.05370   0.68657   0.00000  Uiso   1.00
C198   C     0.83033   0.08319   0.68403   0.00000  Uiso   1.00
C199   C     0.80473   0.09125   0.71105   0.00000  Uiso   1.00
C200   C     0.77900   0.08117   0.77126   0.00000  Uiso   1.00
H201   H     0.82866   0.02250   0.76526   0.00000  Uiso   1.00
H202   H     0.87283   0.00884   0.71699   0.00000  Uiso   1.00
H203   H     0.87588   0.04774   0.66626   0.00000  Uiso   1.00
H204   H     0.78691   0.11545   0.70992   0.00000  Uiso   1.00
H205   H     0.79554   0.09447   0.79188   0.00000  Uiso   1.00
H206   H     0.75866   0.10233   0.76336   0.00000  Uiso   1.00
C207   C     0.68900   0.93673   0.95312   0.00000  Uiso   1.00
C208   C     0.70060   0.93635   0.98783   0.00000  Uiso   1.00
C209   C     0.71512   0.92722   0.92310   0.00000  Uiso   1.00
C210   C     0.74115   0.95993   0.87518   0.00000  Uiso   1.00
C211   C     0.76057   0.99490   0.86592   0.00000  Uiso   1.00
C212   C     0.65234   0.94510   0.94658   0.00000  Uiso   1.00
C213   C     0.62731   0.95145   0.97432   0.00000  Uiso   1.00
C214   C     0.67532   0.94207   0.01596   0.00000  Uiso   1.00
H215   H     0.64306   0.94625   0.91999   0.00000  Uiso   1.00
H216   H     0.59897   0.95731   0.96894   0.00000  Uiso   1.00
H217   H     0.61844   0.95261   0.02994   0.00000  Uiso   1.00
H218   H     0.72895   0.92982   0.99280   0.00000  Uiso   1.00
H219   H     0.69979   0.91457   0.90117   0.00000  Uiso   1.00
C220   C     0.76891   0.04110   0.81930   0.00000  Uiso   1.00
C221   C     0.75398   1.00398   0.82797   0.00000  Uiso   1.00
H222   H     0.75878   0.93547   0.86722   0.00000  Uiso   1.00
H223   H     0.74997   0.01824   0.88318   0.00000  Uiso   1.00
H224   H     0.79030   0.99106   0.87008   0.00000  Uiso   1.00
H225   H     0.71507   0.95852   0.86102   0.00000  Uiso   1.00
H226   H     0.73585   0.90632   0.93075   0.00000  Uiso   1.00
H227   H     0.75683   0.06283   0.83761   0.00000  Uiso   1.00
H228   H     0.79898   0.03967   0.82197   0.00000  Uiso   1.00
N229   N     0.75936   0.04942   0.78355   0.00000  Uiso   1.00
N230   N     0.73339   0.96049   0.91287   0.00000  Uiso   1.00
C231   C     0.63852   0.94919   0.00885   0.00000  Uiso   1.00
C232   C     0.84719   0.97138   0.50762   0.00000  Uiso   1.00
C233   C     0.87376  -0.04834   0.52565   0.00000  Uiso   1.00
C234   C     0.89252  -0.03146   0.55254   0.00000  Uiso   1.00
C235   C     0.88425   0.00500   0.56270   0.00000  Uiso   1.00
C236   C     0.85679   0.02531   0.54609   0.00000  Uiso   1.00
C237   C     0.83882   0.00858   0.51783   0.00000  Uiso   1.00
C238   C     0.82647   0.95060   0.48016   0.00000  Uiso   1.00
H239   H     0.87977  -0.07707   0.51902   0.00000  Uiso   1.00
H240   H     0.91317  -0.04696   0.56595   0.00000  Uiso   1.00
H241   H     0.89920   0.01718   0.58394   0.00000  Uiso   1.00
H242   H     0.81816   0.02403   0.50428   0.00000  Uiso   1.00
H243   H     0.84412   0.92749   0.46875   0.00000  Uiso   1.00
H244   H     0.80239   0.93855   0.49307   0.00000  Uiso   1.00
C245   C     0.68402   0.95683   0.27129   0.00000  Uiso   1.00
C246   C     0.69502   0.95394   0.23581   0.00000  Uiso   1.00
C247   C     0.70232   0.98235   0.29636   0.00000  Uiso   1.00
C248   C     0.74167   0.98198   0.34615   0.00000  Uiso   1.00
C249   C     0.76181   0.95609   0.37002   0.00000  Uiso   1.00
C250   C     0.65835   0.93264   0.28433   0.00000  Uiso   1.00
C251   C     0.64489   0.90494   0.26271   0.00000  Uiso   1.00
C252   C     0.68183   0.92571   0.21419   0.00000  Uiso   1.00
H253   H     0.64980   0.93440   0.31161   0.00000  Uiso   1.00
H254   H     0.62571   0.88583   0.27303   0.00000  Uiso   1.00
H255   H     0.64679   0.87894   0.21186   0.00000  Uiso   1.00
H256   H     0.71517   0.97214   0.22563   0.00000  Uiso   1.00
H257   H     0.68114   0.99907   0.31157   0.00000  Uiso   1.00
C258   C     0.79789   0.95221   0.42472   0.00000  Uiso   1.00
C259   C     0.77937   0.97776   0.39953   0.00000  Uiso   1.00
H260   H     0.76146   1.00029   0.33363   0.00000  Uiso   1.00
H261   H     0.74222   0.93662   0.38114   0.00000  Uiso   1.00
H262   H     0.78324   0.94002   0.35454   0.00000  Uiso   1.00
H263   H     0.72097   0.99886   0.36182   0.00000  Uiso   1.00
H264   H     0.72025   1.00118   0.28214   0.00000  Uiso   1.00
H265   H     0.77708   0.93412   0.43608   0.00000  Uiso   1.00
H266   H     0.81915   0.93484   0.41027   0.00000  Uiso   1.00
N267   N     0.81474   0.97432   0.45222   0.00000  Uiso   1.00
N268   N     0.72395   0.95976   0.31948   0.00000  Uiso   1.00
C269   C     0.65698   0.90112   0.22800   0.00000  Uiso   1.00
C270   C     0.30970   0.47408   0.47307   0.00000  Uiso   1.00
C271   C     0.30675   0.50188   0.44873   0.00000  Uiso   1.00
C272   C     0.33115   0.50228   0.42010   0.00000  Uiso   1.00
C273   C     0.35835   0.47469   0.41514   0.00000  Uiso   1.00
C274   C     0.36068   0.44578   0.43816   0.00000  Uiso   1.00
C275   C     0.33666   0.44613   0.46757   0.00000  Uiso   1.00
C276   C     0.28400   0.47382   0.50442   0.00000  Uiso   1.00
H277   H     0.28565   0.52327   0.45194   0.00000  Uiso   1.00
H278   H     0.32914   0.52415   0.40174   0.00000  Uiso   1.00
H279   H     0.37790   0.47614   0.39373   0.00000  Uiso   1.00
H280   H     0.33849   0.42440   0.48614   0.00000  Uiso   1.00
H281   H     0.25661   0.48452   0.49720   0.00000  Uiso   1.00
H282   H     0.28098   0.44502   0.51267   0.00000  Uiso   1.00
C283   C     0.26482   0.54181   0.75351   0.00000  Uiso   1.00
C284   C     0.23009   0.55595   0.76403   0.00000  Uiso   1.00
C285   C     0.28192   0.55315   0.71972   0.00000  Uiso   1.00
C286   C     0.28571   0.53775   0.65783   0.00000  Uiso   1.00
C287   C     0.26950   0.51380   0.62895   0.00000  Uiso   1.00
C288   C     0.28290   0.51647   0.77450   0.00000  Uiso   1.00
C289   C     0.26625   0.50500   0.80527   0.00000  Uiso   1.00
C290   C     0.21371   0.54461   0.79507   0.00000  Uiso   1.00
H291   H     0.30969   0.50529   0.76699   0.00000  Uiso   1.00
H292   H     0.28006   0.48536   0.82135   0.00000  Uiso   1.00
H293   H     0.21911   0.51027   0.83961   0.00000  Uiso   1.00
H294   H     0.21594   0.57552   0.74804   0.00000  Uiso   1.00
H295   H     0.31190   0.54776   0.72004   0.00000  Uiso   1.00
C296   C     0.27559   0.49327   0.56502   0.00000  Uiso   1.00
C297   C     0.29042   0.51771   0.59428   0.00000  Uiso   1.00
H298   H     0.28357   0.56716   0.65090   0.00000  Uiso   1.00
H299   H     0.27108   0.48460   0.63654   0.00000  Uiso   1.00
H300   H     0.24042   0.52213   0.62588   0.00000  Uiso   1.00
H301   H     0.31491   0.52948   0.66044   0.00000  Uiso   1.00
H302   H     0.27693   0.58319   0.71682   0.00000  Uiso   1.00
H303   H     0.27647   0.46423   0.57324   0.00000  Uiso   1.00
H304   H     0.24690   0.50207   0.56029   0.00000  Uiso   1.00
N305   N     0.29801   0.49659   0.53315   0.00000  Uiso   1.00
N306   N     0.26581   0.53248   0.69079   0.00000  Uiso   1.00
C307   C     0.23171   0.51898   0.81549   0.00000  Uiso   1.00
C308   C     0.16124   0.52452   0.99550   0.00000  Uiso   1.00
C309   C     0.12807   0.50947   1.00562   0.00000  Uiso   1.00
C310   C     0.09629   0.51820   0.98817   0.00000  Uiso   1.00
C311   C     0.09739   0.54176   0.96016   0.00000  Uiso   1.00
C312   C     0.13036   0.55721   0.94972   0.00000  Uiso   1.00
C313   C     0.16231   0.54852   0.96741   0.00000  Uiso   1.00
C314   C     0.19504   0.51363   0.01428   0.00000  Uiso   1.00
H315   H     0.12708   0.49043   1.02676   0.00000  Uiso   1.00
H316   H     0.07095   0.50603   0.99596   0.00000  Uiso   1.00
H317   H     0.07263   0.54704   0.94606   0.00000  Uiso   1.00
H318   H     0.18793   0.55928   0.95855   0.00000  Uiso   1.00
H319   H     0.19897   0.48322   0.01097   0.00000  Uiso   1.00
H320   H     0.21945   0.52668   1.00313   0.00000  Uiso   1.00
C321   C     0.30686   0.50682   0.23781   0.00000  Uiso   1.00
C322   C     0.31091   0.48196   0.26493   0.00000  Uiso   1.00
C323   C     0.26997   0.51691   0.22464   0.00000  Uiso   1.00
C324   C     0.24210   0.51982   0.16830   0.00000  Uiso   1.00
C325   C     0.23917   0.49915   0.13330   0.00000  Uiso   1.00
C326   C     0.33787   0.52115   0.22177   0.00000  Uiso   1.00
C327   C     0.37257   0.51078   0.23248   0.00000  Uiso   1.00
C328   C     0.34585   0.47168   0.27566   0.00000  Uiso   1.00
H329   H     0.33513   0.54021   0.20078   0.00000  Uiso   1.00
H330   H     0.39640   0.52177   0.21992   0.00000  Uiso   1.00
H331   H     0.40372   0.47840   0.26746   0.00000  Uiso   1.00
H332   H     0.28716   0.47044   0.27713   0.00000  Uiso   1.00
H333   H     0.26728   0.54744   0.22360   0.00000  Uiso   1.00
C334   C     0.21476   0.50313   0.07272   0.00000  Uiso   1.00
C335   C     0.21556   0.52134   0.10900   0.00000  Uiso   1.00
H336   H     0.21463   0.52328   0.18109   0.00000  Uiso   1.00
H337   H     0.26689   0.49448   0.12132   0.00000  Uiso   1.00
H338   H     0.22685   0.47207   0.13742   0.00000  Uiso   1.00
H339   H     0.25347   0.54732   0.16378   0.00000  Uiso   1.00
H340   H     0.24809   0.50757   0.24246   0.00000  Uiso   1.00
H341   H     0.24290   0.50167   0.06117   0.00000  Uiso   1.00
H342   H     0.20431   0.47486   0.07473   0.00000  Uiso   1.00
N343   N     0.19058   0.52495   0.05125   0.00000  Uiso   1.00
N344   N     0.26643   0.49882   0.19026   0.00000  Uiso   1.00
C345   C     0.37656   0.48617   0.25936   0.00000  Uiso   1.00
C346   C     0.22435   0.32471   0.46108   0.00000  Uiso   1.00
C347   C     0.20878   0.35438   0.44356   0.00000  Uiso   1.00
C348   C     0.23065   0.38204   0.43128   0.00000  Uiso   1.00
C349   C     0.26832   0.37938   0.43485   0.00000  Uiso   1.00
C350   C     0.28434   0.34961   0.45182   0.00000  Uiso   1.00
C351   C     0.26214   0.32305   0.46614   0.00000  Uiso   1.00
C352   C     0.20141   0.29283   0.47009   0.00000  Uiso   1.00
H353   H     0.17987   0.35553   0.43855   0.00000  Uiso   1.00
H354   H     0.21855   0.40477   0.41769   0.00000  Uiso   1.00
H355   H     0.28511   0.39998   0.42339   0.00000  Uiso   1.00
H356   H     0.27449   0.29962   0.47857   0.00000  Uiso   1.00
H357   H     0.19262   0.28003   0.44495   0.00000  Uiso   1.00
H358   H     0.21747   0.27180   0.48406   0.00000  Uiso   1.00
C359   C     0.98522   0.21580   0.56489   0.00000  Uiso   1.00
C360   C     0.95387   0.19510   0.56022   0.00000  Uiso   1.00
C361   C    -0.01308   0.25450   0.55277   0.00000  Uiso   1.00
C362   C     0.04582   0.27660   0.53333   0.00000  Uiso   1.00
C363   C     0.07801   0.26408   0.50951   0.00000  Uiso   1.00
C364   C     0.01536   0.20017   0.58139   0.00000  Uiso   1.00
C365   C     1.01495   0.16394   0.59170   0.00000  Uiso   1.00
C366   C     0.95284   0.15903   0.57192   0.00000  Uiso   1.00
H367   H     0.03936   0.21594   0.58607   0.00000  Uiso   1.00
H368   H     1.03824   0.15207   0.60447   0.00000  Uiso   1.00
H369   H     0.98467   0.11523   0.59486   0.00000  Uiso   1.00
H370   H     0.93017   0.20747   0.54843   0.00000  Uiso   1.00
H371   H    -0.00685   0.27322   0.57538   0.00000  Uiso   1.00
C372   C     0.14217   0.27737   0.49088   0.00000  Uiso   1.00
C373   C     0.10992   0.28947   0.51468   0.00000  Uiso   1.00
H374   H     0.03940   0.30631   0.53009   0.00000  Uiso   1.00
H375   H     0.08656   0.23545   0.51558   0.00000  Uiso   1.00
H376   H     0.06969   0.26445   0.48180   0.00000  Uiso   1.00
H377   H     0.05358   0.27233   0.56084   0.00000  Uiso   1.00
H378   H    -0.03993   0.26399   0.54311   0.00000  Uiso   1.00
H379   H     0.15371   0.25074   0.49975   0.00000  Uiso   1.00
H380   H     0.13255   0.27386   0.46365   0.00000  Uiso   1.00
N381   N     0.16988   0.30533   0.49201   0.00000  Uiso   1.00
N382   N     0.01391   0.25552   0.52396   0.00000  Uiso   1.00
C383   C     0.98429   0.14318   0.58626   0.00000  Uiso   1.00
C384   C     0.93938   0.99857   0.73977   0.00000  Uiso   1.00
C385   C     0.94808   0.02620   0.76436   0.00000  Uiso   1.00
C386   C     0.96435   0.05823   0.75355   0.00000  Uiso   1.00
C387   C     0.97198   0.06311   0.71814   0.00000  Uiso   1.00
C388   C     0.96356   0.03580   0.69326   0.00000  Uiso   1.00
C389   C     0.94655   1.00399   0.70402   0.00000  Uiso   1.00
C390   C     0.92490   0.96257   0.75178   0.00000  Uiso   1.00
H391   H     0.94292   0.02267   0.79202   0.00000  Uiso   1.00
H392   H     0.97253   0.07859   0.77286   0.00000  Uiso   1.00
H393   H     0.98627   0.08721   0.71034   0.00000  Uiso   1.00
H394   H     0.94011   0.98285   0.68469   0.00000  Uiso   1.00
H395   H     0.92651   0.96142   0.78074   0.00000  Uiso   1.00
H396   H     0.89584   0.96012   0.74501   0.00000  Uiso   1.00
C397   C     0.05408   0.72469   0.74051   0.00000  Uiso   1.00
C398   C     0.07959   0.70652   0.76105   0.00000  Uiso   1.00
C399   C     0.05583   0.76521   0.73609   0.00000  Uiso   1.00
C400   C     0.01843   0.82009   0.73935   0.00000  Uiso   1.00
C401   C     0.98387   0.83835   0.75538   0.00000  Uiso   1.00
C402   C     0.02644   0.70487   0.72451   0.00000  Uiso   1.00
C403   C     0.02460   0.66712   0.72870   0.00000  Uiso   1.00
C404   C     0.07829   0.66846   0.76492   0.00000  Uiso   1.00
H405   H     0.00612   0.71869   0.70907   0.00000  Uiso   1.00
H406   H     0.00270   0.65198   0.71718   0.00000  Uiso   1.00
H407   H     0.04776   0.61976   0.75196   0.00000  Uiso   1.00
H408   H     0.09951   0.72233   0.77489   0.00000  Uiso   1.00
H409   H     0.05760   0.77011   0.70757   0.00000  Uiso   1.00
C410   C     0.94779   0.89914   0.75437   0.00000  Uiso   1.00
C411   C     0.97700   0.87408   0.73688   0.00000  Uiso   1.00
H412   H     0.04223   0.83697   0.74609   0.00000  Uiso   1.00
H413   H     0.96047   0.82011   0.75150   0.00000  Uiso   1.00
H414   H     0.98749   0.84374   0.78383   0.00000  Uiso   1.00
H415   H     0.01588   0.81827   0.71041   0.00000  Uiso   1.00
H416   H     0.08051   0.77638   0.74829   0.00000  Uiso   1.00
H417   H     0.92108   0.88555   0.75409   0.00000  Uiso   1.00
H418   H     0.95572   0.90549   0.78173   0.00000  Uiso   1.00
N419   N     0.94623   0.93242   0.73425   0.00000  Uiso   1.00
N420   N     0.02339   0.78325   0.75257   0.00000  Uiso   1.00
C421   C     0.05054   0.64894   0.74837   0.00000  Uiso   1.00
C422   C     0.95603   0.52761   0.81806   0.00000  Uiso   1.00
C423   C     0.93361   0.54749   0.84267   0.00000  Uiso   1.00
C424   C     0.94904   0.56724   0.87007   0.00000  Uiso   1.00
C425   C     0.98674   0.56816   0.87236   0.00000  Uiso   1.00
C426   C     0.00950   0.54939   0.84713   0.00000  Uiso   1.00
C427   C     0.99406   0.52881   0.82021   0.00000  Uiso   1.00
C428   C     0.94000   0.50372   0.79049   0.00000  Uiso   1.00
H429   H     0.90426   0.54740   0.84096   0.00000  Uiso   1.00
H430   H     0.93186   0.58226   0.88935   0.00000  Uiso   1.00
H431   H    -0.00183   0.58476   0.89312   0.00000  Uiso   1.00
H432   H     1.01143   0.51432   0.80057   0.00000  Uiso   1.00
H433   H     0.90974   0.50575   0.79204   0.00000  Uiso   1.00
H434   H     0.94960   0.51264   0.76446   0.00000  Uiso   1.00
C435   C     0.94916   0.26175   0.69288   0.00000  Uiso   1.00
C436   C     0.94218   0.22398   0.69146   0.00000  Uiso   1.00
C437   C     0.96804   0.27933   0.72314   0.00000  Uiso   1.00
C438   C     0.96309   0.33876   0.75440   0.00000  Uiso   1.00
C439   C     0.93904   0.37349   0.75390   0.00000  Uiso   1.00
C440   C     0.93856   0.28375   0.66531   0.00000  Uiso   1.00
C441   C     0.92016   0.26860   0.63719   0.00000  Uiso   1.00
C442   C     0.92397   0.20847   0.66298   0.00000  Uiso   1.00
H443   H     0.94453   0.31276   0.66580   0.00000  Uiso   1.00
H444   H     0.91246   0.28584   0.61593   0.00000  Uiso   1.00
H445   H     0.90018   0.21975   0.61301   0.00000  Uiso   1.00
H446   H     0.95121   0.20662   0.71219   0.00000  Uiso   1.00
H447   H     0.99388   0.29045   0.71272   0.00000  Uiso   1.00
C448   C     0.93745   0.44084   0.77048   0.00000  Uiso   1.00
C449   C     0.95818   0.40447   0.77266   0.00000  Uiso   1.00
H450   H     0.96961   0.33243   0.78177   0.00000  Uiso   1.00
H451   H     0.93407   0.38075   0.72637   0.00000  Uiso   1.00
H452   H     0.91247   0.36912   0.76743   0.00000  Uiso   1.00
H453   H     0.98877   0.34402   0.73964   0.00000  Uiso   1.00
H454   H     0.97513   0.25914   0.74324   0.00000  Uiso   1.00
H455   H     0.94095   0.45103   0.74358   0.00000  Uiso   1.00
H456   H     0.90807   0.43757   0.77688   0.00000  Uiso   1.00
N457   N     0.95261   0.46609   0.79600   0.00000  Uiso   1.00
N458   N     0.94352   0.30822   0.73876   0.00000  Uiso   1.00
C459   C     0.91285   0.23113   0.63594   0.00000  Uiso   1.00
C460   C     0.73907   0.73441   0.07971   0.00000  Uiso   1.00
C461   C     0.74588   0.72798   0.11494   0.00000  Uiso   1.00
C462   C     0.73669   0.75496   0.14065   0.00000  Uiso   1.00
C463   C     0.72087   0.78838   0.13128   0.00000  Uiso   1.00
C464   C     0.71112   0.79392   0.09667   0.00000  Uiso   1.00
C465   C     0.72032   0.76690   0.07083   0.00000  Uiso   1.00
C466   C     0.75801   0.71102   0.05148   0.00000  Uiso   1.00
H467   H     0.76057   0.70331   0.12228   0.00000  Uiso   1.00
H468   H     0.74393   0.75092   0.16749   0.00000  Uiso   1.00
H469   H     0.71812   0.81064   0.15065   0.00000  Uiso   1.00
H470   H     0.71577   0.77243   0.04362   0.00000  Uiso   1.00
H471   H     0.76979   0.68550   0.06250   0.00000  Uiso   1.00
H472   H     0.73844   0.70323   0.03106   0.00000  Uiso   1.00
C473   C     0.97294   0.72852   0.90552   0.00000  Uiso   1.00
C474   C     1.01006   0.71752   0.90473   0.00000  Uiso   1.00
C475   C     0.95612   0.74915   0.93651   0.00000  Uiso   1.00
C476   C     0.90151   0.74430   0.97242   0.00000  Uiso   1.00
C477   C     0.87350   0.71672   0.98331   0.00000  Uiso   1.00
C478   C     0.95032   0.71724   0.87831   0.00000  Uiso   1.00
C479   C     0.96446   0.69520   0.85053   0.00000  Uiso   1.00
C480   C     0.02397   0.69432   0.87737   0.00000  Uiso   1.00
H481   H     0.92150   0.72467   0.87912   0.00000  Uiso   1.00
H482   H     0.94701   0.68632   0.82965   0.00000  Uiso   1.00
H483   H     0.01100   0.66542   0.82882   0.00000  Uiso   1.00
H484   H     1.02720   0.72505   0.92627   0.00000  Uiso   1.00
H485   H     0.94162   0.77409   0.92706   0.00000  Uiso   1.00
C486   C     0.81344   0.71094   0.01581   0.00000  Uiso   1.00
C487   C     0.84232   0.73679   0.00340   0.00000  Uiso   1.00
H488   H     0.91198   0.75905   0.99586   0.00000  Uiso   1.00
H489   H     0.86285   0.70259   0.95962   0.00000  Uiso   1.00
H490   H     0.88649   0.69594   1.00003   0.00000  Uiso   1.00
H491   H     0.88816   0.76443   0.95516   0.00000  Uiso   1.00
H492   H     0.97712   0.75810   0.95508   0.00000  Uiso   1.00
H493   H     0.80033   0.69771  -0.00706   0.00000  Uiso   1.00
H494   H     0.82631   0.68968   0.03214   0.00000  Uiso   1.00
N495   N     0.78662   0.73310   0.03648   0.00000  Uiso   1.00
N496   N     0.93152   0.72435   0.95388   0.00000  Uiso   1.00
C497   C     0.00091   0.68356   0.85018   0.00000  Uiso   1.00
C498   C     0.62108   0.75567   0.28425   0.00000  Uiso   1.00
C499   C     0.65479   0.76287   0.29921   0.00000  Uiso   1.00
C500   C     0.68114   0.78157   0.28066   0.00000  Uiso   1.00
C501   C     0.67406   0.79350   0.24721   0.00000  Uiso   1.00
C502   C     0.64028   0.78715   0.23182   0.00000  Uiso   1.00
C503   C     0.61404   0.76769   0.25038   0.00000  Uiso   1.00
C504   C     0.59324   0.73422   0.30380   0.00000  Uiso   1.00
H505   H     0.66102   0.75357   0.32501   0.00000  Uiso   1.00
H506   H     0.70727   0.78670   0.29211   0.00000  Uiso   1.00
H507   H     0.69527   0.80746   0.23323   0.00000  Uiso   1.00
H508   H     0.58845   0.76146   0.23846   0.00000  Uiso   1.00
H509   H     0.59817   0.73610   0.33238   0.00000  Uiso   1.00
H510   H     0.56561   0.74619   0.29932   0.00000  Uiso   1.00
C511   C     0.52856   0.47248   0.28252   0.00000  Uiso   1.00
C512   C     0.49886   0.46243   0.30392   0.00000  Uiso   1.00
C513   C     0.55325   0.50344   0.29301   0.00000  Uiso   1.00
C514   C     0.55696   0.56931   0.28573   0.00000  Uiso   1.00
C515   C     0.54639   0.60631   0.30436   0.00000  Uiso   1.00
C516   C     0.53726   0.45112   0.25193   0.00000  Uiso   1.00
C517   C     0.51653   0.42117   0.24235   0.00000  Uiso   1.00
C518   C     0.47791   0.43195   0.29435   0.00000  Uiso   1.00
H519   H     0.56063   0.45720   0.23566   0.00000  Uiso   1.00
H520   H     0.52356   0.40493   0.21878   0.00000  Uiso   1.00
H521   H     0.47117   0.38837   0.25502   0.00000  Uiso   1.00
H522   H     0.49217   0.47820   0.32793   0.00000  Uiso   1.00
H523   H     0.57607   0.50424   0.27334   0.00000  Uiso   1.00
C524   C     0.57052   0.67261   0.30967   0.00000  Uiso   1.00
C525   C     0.57313   0.63470   0.29141   0.00000  Uiso   1.00
H526   H     0.58604   0.56307   0.29168   0.00000  Uiso   1.00
H527   H     0.51808   0.61504   0.29800   0.00000  Uiso   1.00
H528   H     0.54838   0.60381   0.33313   0.00000  Uiso   1.00
H529   H     0.55485   0.57237   0.25700   0.00000  Uiso   1.00
H530   H     0.56589   0.49734   0.31827   0.00000  Uiso   1.00
H531   H     0.54216   0.68406   0.30862   0.00000  Uiso   1.00
H532   H     0.57856   0.67042   0.33737   0.00000  Uiso   1.00
N533   N     0.59582   0.69585   0.29108   0.00000  Uiso   1.00
N534   N     0.53343   0.53934   0.29650   0.00000  Uiso   1.00
C535   C     0.48710   0.41153   0.26331   0.00000  Uiso   1.00
loop_
_geom_bond_atom_site_label_1
_geom_bond_atom_site_label_2
_geom_bond_distance
_geom_bond_site_symmetry_2
_ccdc_geom_bond_type
C0     O11     1.234   .     A
C0     O12     1.255   .     A
C0     C426    1.463   .     S
Sm1    O5      2.271   .     S
Sm1    O6      2.266   .     S
Sm1    O8      2.245   .     S
Sm1    O9      2.218   .     S
Sm1    O10     2.321   .     S
Sm1    O13     2.291   .     S
Sm2    O7      2.242   .     S
Sm2    O11     2.251   .     S
Sm2    O12     2.310   .     S
Sm2    O14     2.212   .     S
Sm2    O15     2.265   .     S
Sm2    O16     2.263   .     S
C3     O13     1.283   .     A
C3     O14     1.271   .     A
C3     C312    1.470   .     S
C4     O15     1.255   .     A
C4     O16     1.258   .     A
C4     C290    1.458   .     S
O5     C17     1.263   .     A
O6     C17     1.269   .     A
O7     C18     1.271   .     A
O8     C18     1.278   .     A
O9     C19     1.242   .     A
O10    C19     1.269   .     A
C17    C100    1.483   .     S
C18    C404    1.480   .     S
C19    C480    1.472   .     S
C20    O31     1.275   .     A
C20    O32     1.286   .     A
C20    C502    1.483   .     S
Sm21   O25     2.273   .     S
Sm21   O26     2.256   .     S
Sm21   O28     2.339   .     S
Sm21   O29     2.196   .     S
Sm21   O30     2.231   .     S
Sm21   O33     2.248   .     S
Sm22   O27     2.269   .     S
Sm22   O31     2.211   .     S
Sm22   O32     2.258   .     S
Sm22   O34     2.207   .     S
Sm22   O35     2.225   .     S
Sm22   O36     2.235   .     S
C23    O33     1.256   .     A
C23    O34     1.261   .     A
C23    C464    1.462   .     S
C24    O35     1.283   .     A
C24    O36     1.284   .     A
C24    C84     1.476   .     S
O25    C37     1.275   .     A
O26    C37     1.264   .     A
O27    C38     1.285   .     A
O28    C38     1.298   .     A
O29    C39     1.279   .     A
O30    C39     1.292   .     A
C37    C214    1.478   .     S
C38    C138    1.481   .     S
C39    C252    1.471   .     S
C40    O51     1.253   .     A
C40    O52     1.269   .     A
C40    C236    1.487   .     S
Sm41   O45     2.259   .     S
Sm41   O46     2.246   .     S
Sm41   O48     2.274   .     S
Sm41   O49     2.253   .     S
Sm41   O50     2.243   .     S
Sm41   O53     2.283   .     S
Sm42   O47     2.236   .     S
Sm42   O51     2.263   .     S
Sm42   O52     2.305   .     S
Sm42   O54     2.269   .     S
Sm42   O55     2.297   .     S
Sm42   O56     2.253   .     S
C43    O53     1.272   .     A
C43    O54     1.287   .     A
C43    C366    1.479   .     S
C44    O55     1.267   .     A
C44    O56     1.248   .     A
C44    C160    1.478   .     S
O45    C57     1.279   .     A
O46    C57     1.267   .     A
O47    C58     1.278   .     A
O48    C58     1.286   .     A
O49    C59     1.270   .     A
O50    C59     1.267   .     A
C57    C442    1.474   .     S
C58    C198    1.459   .     S
C59    C388    1.468   .     S
C60    O71     1.277   .     A
C60    O72     1.273   .     A
C60    C328    1.468   .     S
Sm61   O65     2.266   .     S
Sm61   O66     2.245   .     S
Sm61   O68     2.273   .     S
Sm61   O69     2.201   .     S
Sm61   O70     2.240   .     S
Sm61   O73     2.258   .     S
Sm62   O67     2.240   .     S
Sm62   O71     2.240   .     S
Sm62   O72     2.232   .     S
Sm62   O74     2.311   .     S
Sm62   O75     2.323   .     S
Sm62   O76     2.284   .     S
C63    O73     1.270   .     A
C63    O74     1.284   .     A
C63    C122    1.479   .     S
C64    O75     1.248   .     A
C64    O76     1.238   .     A
C64    C518    1.484   .     S
O65    C77     1.272   .     A
O66    C77     1.264   .     A
O67    C78     1.274   .     A
O68    C78     1.272   .     A
O69    C79     1.280   .     A
O70    C79     1.290   .     A
C77    C176    1.474   .     S
C78    C274    1.482   .     S
C79    C350    1.469   .     S
C80    C81     1.403   .     A
C80    C85     1.405   .     A
C80    C86     1.506   .     S
C81    C82     1.400   .     A
C81    H87     1.083   .     S
C82    C83     1.401   .     A
C82    H88     1.083   .     S
C83    C84     1.405   .     A
C83    H89     1.084   .     S
C84    C85     1.403   .     A
C85    H90     1.084   .     S
C86    H91     1.113   .     S
C86    H92     1.114   .     S
C86    N115    1.468   1_554 S
C93    C94     1.414   .     A
C93    C95     1.513   .     S
C93    C98     1.404   .     A
C94    C100    1.414   .     A
C94    H104    1.083   .     S
C95    H105    1.113   .     S
C95    H112    1.112   .     S
C95    N116    1.467   .     S
C96    C97     1.529   .     S
C96    H108    1.113   .     S
C96    H111    1.113   .     S
C96    N116    1.470   .     S
C97    C107    1.534   .     S
C97    H109    1.112   .     S
C97    H110    1.112   .     S
C98    C99     1.396   .     A
C98    H101    1.083   .     S
C99    H102    1.082   .     S
C99    C117    1.395   .     A
C100   C117    1.403   .     A
H103   C117    1.083   .     S
C106   C107    1.528   .     S
C106   N115    1.466   .     S
C106   H113    1.113   1_556 S
C106   H114    1.113   1_556 S
H113   C106    1.113   1_554 S
H114   C106    1.113   1_554 S
N115   C86     1.468   1_556 S
C118   C119    1.407   .     A
C118   C123    1.418   .     A
C118   C124    1.517   .     S
C119   C120    1.394   .     A
C119   H125    1.083   .     S
C120   C121    1.392   .     A
C120   H126    1.083   .     S
C121   C122    1.405   .     A
C121   H127    1.084   .     S
C122   C123    1.410   .     A
C123   H128    1.084   .     S
C124   H129    1.113   .     S
C124   H130    1.111   .     S
C124   N153    1.476   .     S
C131   C133    1.515   .     S
C131   C136    1.403   .     A
C131   C132    1.411   1_545 A
C132   C138    1.411   .     A
C132   H142    1.074   .     S
C132   C131    1.411   1_565 A
C133   H143    1.113   .     S
C133   H150    1.112   .     S
C133   N154    1.475   .     S
C134   C135    1.539   .     S
C134   H146    1.114   .     S
C134   H149    1.113   .     S
C134   N154    1.472   .     S
C135   C145    1.541   .     S
C135   H147    1.111   .     S
C135   H148    1.112   .     S
C136   H139    1.084   .     S
C136   C137    1.396   1_545 A
C137   H140    1.082   .     S
C137   C155    1.396   .     A
C137   C136    1.396   1_565 A
C138   C155    1.402   .     A
H141   C155    1.083   .     S
C144   C145    1.537   .     S
C144   H151    1.112   .     S
C144   H152    1.113   .     S
C144   N153    1.471   .     S
C156   C157    1.402   .     A
C156   C161    1.413   .     A
C156   C162    1.503   .     S
C157   C158    1.392   .     A
C157   H163    1.084   .     S
C158   C159    1.394   .     A
C158   H164    1.083   .     S
C159   C160    1.410   .     A
C159   H165    1.083   .     S
C160   C161    1.403   .     A
C161   H166    1.083   .     S
C162   H167    1.113   .     S
C162   H168    1.112   .     S
C162   N191    1.462   .     S
C169   C170    1.405   .     A
C169   C171    1.502   .     S
C169   C174    1.401   .     A
C170   C176    1.406   .     A
C170   H180    1.084   .     S
C171   H181    1.117   .     S
C171   H188    1.113   .     S
C171   N192    1.462   .     S
C172   C173    1.531   .     S
C172   H184    1.111   .     S
C172   H187    1.116   .     S
C172   N192    1.463   .     S
C173   C183    1.521   .     S
C173   H185    1.113   .     S
C173   H186    1.113   .     S
C174   C175    1.395   .     A
C174   H177    1.084   .     S
C175   H178    1.082   .     S
C175   C193    1.398   .     A
C176   C193    1.407   .     A
H179   C193    1.083   .     S
C182   C183    1.513   .     S
C182   H189    1.112   .     S
C182   H190    1.113   .     S
C182   N191    1.458   .     S
C194   C195    1.407   .     A
C194   C199    1.404   .     A
C194   C200    1.504   .     S
C195   C196    1.395   .     A
C195   H201    1.083   .     S
C196   C197    1.391   .     A
C196   H202    1.072   .     S
C197   C198    1.398   .     A
C197   H203    1.083   .     S
C198   C199    1.399   .     A
C199   H204    1.084   .     S
C200   H205    1.115   .     S
C200   H206    1.111   .     S
C200   N229    1.466   .     S
C207   C208    1.406   .     A
C207   C209    1.503   .     S
C207   C212    1.402   .     A
C208   H218    1.084   .     S
C208   C214    1.411   1_556 A
C209   H219    1.116   .     S
C209   H226    1.112   .     S
C209   N230    1.463   .     S
C210   C211    1.527   .     S
C210   H222    1.114   .     S
C210   H225    1.114   .     S
C210   N230    1.464   .     S
C211   C221    1.525   .     S
C211   H224    1.113   .     S
C211   H223    1.113   1_565 S
C212   C213    1.396   .     A
C212   H215    1.084   .     S
C213   H216    1.083   .     S
C213   C231    1.399   1_556 A
C214   C231    1.404   .     A
C214   C208    1.411   1_554 A
H217   C231    1.082   .     S
C220   H227    1.113   .     S
C220   H228    1.112   .     S
C220   N229    1.461   .     S
C220   C221    1.518   1_545 S
C221   C220    1.518   1_565 S
H223   C211    1.113   1_545 S
C231   C213    1.399   1_554 A
C232   C238    1.509   .     S
C232   C233    1.403   1_565 A
C232   C237    1.419   1_565 A
C233   C234    1.389   .     A
C233   H239    1.082   .     S
C233   C232    1.403   1_545 A
C234   C235    1.392   .     A
C234   H240    1.082   .     S
C235   C236    1.410   .     A
C235   H241    1.082   .     S
C236   C237    1.411   .     A
C237   H242    1.084   .     S
C237   C232    1.419   1_545 A
C238   H243    1.116   .     S
C238   H244    1.112   .     S
C238   N267    1.463   .     S
C245   C246    1.407   .     A
C245   C247    1.498   .     S
C245   C250    1.405   .     A
C246   C252    1.403   .     A
C246   H256    1.083   .     S
C247   H257    1.113   .     S
C247   H264    1.112   .     S
C247   N268    1.462   .     S
C248   C249    1.523   .     S
C248   H260    1.113   .     S
C248   H263    1.113   .     S
C248   N268    1.459   .     S
C249   C259    1.524   .     S
C249   H261    1.113   .     S
C249   H262    1.112   .     S
C250   C251    1.393   .     A
C250   H253    1.083   .     S
C251   H254    1.083   .     S
C251   C269    1.392   .     A
C252   C269    1.405   .     A
H255   C269    1.081   .     S
C258   C259    1.521   .     S
C258   H265    1.115   .     S
C258   H266    1.113   .     S
C258   N267    1.464   .     S
C270   C271    1.403   .     A
C270   C275    1.405   .     A
C270   C276    1.510   .     S
C271   C272    1.400   .     A
C271   H277    1.083   .     S
C272   C273    1.400   .     A
C272   H278    1.082   .     S
C273   C274    1.398   .     A
C273   H279    1.081   .     S
C274   C275    1.413   .     A
C275   H280    1.084   .     S
C276   H281    1.113   .     S
C276   H282    1.113   .     S
C276   N305    1.467   .     S
C283   C284    1.405   .     A
C283   C285    1.501   .     S
C283   C288    1.407   .     A
C284   C290    1.400   .     A
C284   H294    1.084   .     S
C285   H295    1.113   .     S
C285   H302    1.113   .     S
C285   N306    1.465   .     S
C286   C287    1.528   .     S
C286   H298    1.113   .     S
C286   H301    1.113   .     S
C286   N306    1.464   .     S
C287   C297    1.531   .     S
C287   H299    1.112   .     S
C287   H300    1.112   .     S
C288   C289    1.397   .     A
C288   H291    1.082   .     S
C289   H292    1.082   .     S
C289   C307    1.394   .     A
C290   C307    1.399   .     A
H293   C307    1.085   .     S
C296   C297    1.528   .     S
C296   H303    1.113   .     S
C296   H304    1.113   .     S
C296   N305    1.466   .     S
C308   C309    1.403   .     A
C308   C313    1.410   .     A
C308   C314    1.500   1_556 S
C309   C310    1.393   .     A
C309   H315    1.085   .     S
C310   C311    1.397   .     A
C310   H316    1.083   .     S
C311   C312    1.406   .     A
C311   H317    1.085   .     S
C312   C313    1.403   .     A
C313   H318    1.082   .     S
C314   H319    1.114   .     S
C314   N343    1.464   .     S
C314   C308    1.500   1_554 S
C314   H320    1.111   1_554 S
H320   C314    1.111   1_556 S
C321   C322    1.409   .     A
C321   C323    1.497   .     S
C321   C326    1.405   .     A
C322   C328    1.401   .     A
C322   H332    1.083   .     S
C323   H333    1.115   .     S
C323   H340    1.111   .     S
C323   N344    1.462   .     S
C324   C325    1.522   .     S
C324   H336    1.113   .     S
C324   H339    1.114   .     S
C324   N344    1.460   .     S
C325   C335    1.523   .     S
C325   H337    1.113   .     S
C325   H338    1.112   .     S
C326   C327    1.394   .     A
C326   H329    1.084   .     S
C327   H330    1.083   .     S
C327   C345    1.396   .     A
C328   C345    1.402   .     A
H331   C345    1.084   .     S
C334   C335    1.520   .     S
C334   H341    1.114   .     S
C334   H342    1.114   .     S
C334   N343    1.461   .     S
C346   C347    1.405   .     A
C346   C351    1.407   .     A
C346   C352    1.500   .     S
C347   C348    1.395   .     A
C347   H353    1.084   .     S
C348   C349    1.395   .     A
C348   H354    1.083   .     S
C349   C350    1.404   .     A
C349   H355    1.083   .     S
C350   C351    1.401   .     A
C351   H356    1.084   .     S
C352   H357    1.114   .     S
C352   H358    1.112   .     S
C352   N381    1.465   .     S
C359   C360    1.408   .     A
C359   C361    1.501   1_655 S
C359   C364    1.403   1_655 A
C360   C366    1.403   .     A
C360   H370    1.084   .     S
C361   H371    1.115   .     S
C361   H378    1.112   .     S
C361   N382    1.467   .     S
C361   C359    1.501   1_455 S
C362   C363    1.525   .     S
C362   H374    1.112   .     S
C362   H377    1.113   .     S
C362   N382    1.466   .     S
C363   C373    1.528   .     S
C363   H375    1.113   .     S
C363   H376    1.112   .     S
C364   H367    1.082   .     S
C364   C359    1.403   1_455 A
C364   C365    1.390   1_455 A
C365   H368    1.082   .     S
C365   C383    1.392   .     A
C365   C364    1.390   1_655 A
C366   C383    1.408   .     A
H369   C383    1.080   .     S
C372   C373    1.522   .     S
C372   H379    1.113   .     S
C372   H380    1.113   .     S
C372   N381    1.462   .     S
C384   C389    1.410   .     A
C384   C390    1.512   .     S
C384   C385    1.403   1_565 A
C385   C386    1.397   .     A
C385   H391    1.084   .     S
C385   C384    1.403   1_545 A
C386   C387    1.396   .     A
C386   H392    1.083   .     S
C387   C388    1.399   .     A
C387   H393    1.084   .     S
C388   C389    1.402   1_545 A
C389   H394    1.085   .     S
C389   C388    1.402   1_565 A
C390   H395    1.114   .     S
C390   H396    1.110   .     S
C390   N419    1.462   .     S
C397   C398    1.403   .     A
C397   C399    1.493   .     S
C397   C402    1.405   .     A
C398   C404    1.401   .     A
C398   H408    1.083   .     S
C399   H409    1.114   .     S
C399   H416    1.112   .     S
C399   N420    1.462   .     S
C400   H412    1.115   .     S
C400   H415    1.114   .     S
C400   N420    1.457   .     S
C400   C401    1.521   1_455 S
C401   C411    1.520   .     S
C401   H413    1.112   .     S
C401   H414    1.112   .     S
C401   C400    1.521   1_655 S
C402   C403    1.392   .     A
C402   H405    1.086   .     S
C403   H406    1.084   .     S
C403   C421    1.395   .     A
C404   C421    1.411   .     A
H407   C421    1.083   .     S
C410   C411    1.515   .     S
C410   H417    1.113   .     S
C410   H418    1.113   .     S
C410   N419    1.459   .     S
C422   C423    1.403   .     A
C422   C427    1.404   .     A
C422   C428    1.489   .     S
C423   C424    1.393   .     A
C423   H429    1.083   .     S
C424   C425    1.392   .     A
C424   H430    1.082   .     S
C425   C426    1.407   1_655 A
C425   H431    1.082   1_655 S
C426   C425    1.407   1_455 A
C426   C427    1.395   1_455 A
C427   H432    1.086   .     S
C427   C426    1.395   1_655 A
C428   H433    1.112   .     S
C428   H434    1.112   .     S
C428   N457    1.456   .     S
H431   C425    1.082   1_455 S
C435   C436    1.406   .     A
C435   C437    1.499   .     S
C435   C440    1.403   .     A
C436   C442    1.404   .     A
C436   H446    1.084   .     S
C437   H447    1.114   .     S
C437   H454    1.113   .     S
C437   N458    1.465   .     S
C438   C439    1.521   .     S
C438   H450    1.112   .     S
C438   H453    1.113   .     S
C438   N458    1.461   .     S
C439   C449    1.516   .     S
C439   H451    1.114   .     S
C439   H452    1.112   .     S
C440   C441    1.392   .     A
C440   H443    1.085   .     S
C441   H444    1.083   .     S
C441   C459    1.397   .     A
C442   C459    1.407   .     A
H445   C459    1.080   .     S
C448   C449    1.513   .     S
C448   H455    1.113   .     S
C448   H456    1.112   .     S
C448   N457    1.451   .     S
C460   C461    1.405   .     A
C460   C465    1.406   .     A
C460   C466    1.497   .     S
C461   C462    1.394   .     A
C461   H467    1.082   .     S
C462   C463    1.394   .     A
C462   H468    1.082   .     S
C463   C464    1.402   .     A
C463   H469    1.080   .     S
C464   C465    1.398   .     A
C465   H470    1.084   .     S
C466   H471    1.114   .     S
C466   H472    1.111   .     S
C466   N495    1.461   .     S
C473   C474    1.409   .     A
C473   C475    1.492   .     S
C473   C478    1.407   .     A
C474   H484    1.083   .     S
C474   C480    1.399   1_655 A
C475   H485    1.114   .     S
C475   H492    1.111   .     S
C475   N496    1.462   .     S
C476   C477    1.521   .     S
C476   H488    1.113   .     S
C476   H491    1.114   .     S
C476   N496    1.457   .     S
C477   H489    1.113   .     S
C477   H490    1.112   .     S
C477   C487    1.518   1_556 S
C478   C479    1.390   .     A
C478   H481    1.084   .     S
C479   H482    1.084   .     S
C479   C497    1.392   1_655 A
C480   C497    1.411   .     A
C480   C474    1.399   1_455 A
H483   C497    1.084   .     S
C486   C487    1.518   .     S
C486   H493    1.112   .     S
C486   H494    1.113   .     S
C486   N495    1.455   .     S
C487   C477    1.518   1_554 S
C497   C479    1.392   1_455 A
C498   C499    1.406   .     A
C498   C503    1.411   .     A
C498   C504    1.506   .     S
C499   C500    1.395   .     A
C499   H505    1.083   .     S
C500   C501    1.395   .     A
C500   H506    1.084   .     S
C501   C502    1.409   .     A
C501   H507    1.084   .     S
C502   C503    1.407   .     A
C503   H508    1.082   .     S
C504   H509    1.114   .     S
C504   H510    1.112   .     S
C504   N533    1.463   .     S
C511   C512    1.414   .     A
C511   C513    1.518   .     S
C511   C516    1.408   .     A
C512   C518    1.413   .     A
C512   H522    1.086   .     S
C513   H523    1.115   .     S
C513   H530    1.110   .     S
C513   N534    1.476   .     S
C514   C515    1.536   .     S
C514   H526    1.116   .     S
C514   H529    1.114   .     S
C514   N534    1.476   .     S
C515   C525    1.535   .     S
C515   H527    1.113   .     S
C515   H528    1.113   .     S
C516   C517    1.393   .     A
C516   H519    1.082   .     S
C517   H520    1.083   .     S
C517   C535    1.392   .     A
C518   C535    1.408   .     A
H521   C535    1.084   .     S
C524   C525    1.524   .     S
C524   H531    1.112   .     S
C524   H532    1.113   .     S
C524   N533    1.465   .     S
