data_lcy+N139+E59
_audit_creation_date              2025-01-21
_audit_creation_method            'Materials Studio'
_symmetry_space_group_name_H-M    'P1'
_symmetry_Int_Tables_number       1
_symmetry_cell_setting            triclinic
loop_
_symmetry_equiv_pos_as_xyz
  x,y,z
_cell_length_a                    34.8396
_cell_length_b                    36.0072
_cell_length_c                    36.4495
_cell_angle_alpha                 89.8419
_cell_angle_beta                  84.0844
_cell_angle_gamma                 87.5982
loop_
_atom_site_label
_atom_site_type_symbol
_atom_site_fract_x
_atom_site_fract_y
_atom_site_fract_z
_atom_site_U_iso_or_equiv
_atom_site_adp_type
_atom_site_occupancy
C0     C     0.06326   0.57527   0.80035   0.00000  Uiso   1.00
Sm1    Sm    0.13732   0.63795   0.87189   0.00000  Uiso   1.00
Sm2    Sm    0.12525   0.58393   0.83711   0.00000  Uiso   1.00
C3     C     0.14843   0.56605   0.91691   0.00000  Uiso   1.00
C4     C     0.19379   0.56090   0.80346   0.00000  Uiso   1.00
O5     O     0.18636   0.67432   0.88178   0.00000  Uiso   1.00
O6     O     0.13082   0.68867   0.90872   0.00000  Uiso   1.00
O7     O     0.11857   0.62348   0.78916   0.00000  Uiso   1.00
O8     O     0.12585   0.67345   0.82281   0.00000  Uiso   1.00
O9     O     0.07589   0.62020   0.87818   0.00000  Uiso   1.00
O10    O     0.08863   0.66724   0.90860   0.00000  Uiso   1.00
O11    O     0.06597   0.56249   0.83257   0.00000  Uiso   1.00
O12    O     0.09304   0.59220   0.78676   0.00000  Uiso   1.00
O13    O     0.15034   0.60116   0.91958   0.00000  Uiso   1.00
O14    O     0.13807   0.55159   0.88778   0.00000  Uiso   1.00
O15    O     0.18869   0.59089   0.82186   0.00000  Uiso   1.00
O16    O     0.16324   0.54325   0.80176   0.00000  Uiso   1.00
C17    C     0.16597   0.69696   0.90292   0.00000  Uiso   1.00
C18    C     0.12088   0.65876   0.79201   0.00000  Uiso   1.00
C19    C     0.06319   0.64501   0.90113   0.00000  Uiso   1.00
C20    C     0.58910   0.81324   0.18305   0.00000  Uiso   1.00
Sm21   Sm    0.68981   0.91274   0.12041   0.00000  Uiso   1.00
Sm22   Sm    0.57145   0.84430   0.11932   0.00000  Uiso   1.00
C23    C     0.66241   0.83350   0.10674   0.00000  Uiso   1.00
C24    C     0.56447   0.80081   0.06267   0.00000  Uiso   1.00
O25    O     0.70662   0.93759   0.06533   0.00000  Uiso   1.00
O26    O     0.74376   0.89464   0.08657   0.00000  Uiso   1.00
O27    O     0.60587   0.89342   0.13120   0.00000  Uiso   1.00
O28    O     0.63369   0.94265   0.14557   0.00000  Uiso   1.00
O29    O     0.70040   0.88826   0.17431   0.00000  Uiso   1.00
O30    O     0.72680   0.94006   0.15812   0.00000  Uiso   1.00
O31    O     0.60733   0.80510   0.15195   0.00000  Uiso   1.00
O32    O     0.56045   0.83563   0.18089   0.00000  Uiso   1.00
O33    O     0.65948   0.86657   0.09461   0.00000  Uiso   1.00
O34    O     0.63173   0.81576   0.11609   0.00000  Uiso   1.00
O35    O     0.58269   0.83100   0.05953   0.00000  Uiso   1.00
O36    O     0.54794   0.79424   0.09497   0.00000  Uiso   1.00
C37    C     0.73744   0.91667   0.06007   0.00000  Uiso   1.00
C38    C     0.60247   0.92550   0.14503   0.00000  Uiso   1.00
C39    C     0.72405   0.91289   0.18102   0.00000  Uiso   1.00
C40    C     0.82012   0.06078   0.57675   0.00000  Uiso   1.00
Sm41   Sm    0.91943   0.11065   0.68012   0.00000  Uiso   1.00
Sm42   Sm    0.84576   0.12893   0.57744   0.00000  Uiso   1.00
C43    C     0.93008   0.13086   0.59748   0.00000  Uiso   1.00
C44    C     0.85227   0.20356   0.57979   0.00000  Uiso   1.00
O45    O     0.90067   0.17033   0.69031   0.00000  Uiso   1.00
O46    O     0.91365   0.13611   0.73647   0.00000  Uiso   1.00
O47    O     0.84918   0.12665   0.63911   0.00000  Uiso   1.00
O48    O     0.85650   0.09646   0.68957   0.00000  Uiso   1.00
O49    O     0.93612   0.05273   0.69657   0.00000  Uiso   1.00
O50    O     0.92756   0.09543   0.73839   0.00000  Uiso   1.00
O51    O     0.85607   0.06719   0.57363   0.00000  Uiso   1.00
O52    O     0.79759   0.08969   0.58028   0.00000  Uiso   1.00
O53    O     0.91591   0.10613   0.61894   0.00000  Uiso   1.00
O54    O     0.90906   0.14532   0.57384   0.00000  Uiso   1.00
O55    O     0.82062   0.18760   0.58439   0.00000  Uiso   1.00
O56    O     0.88098   0.18103   0.57320   0.00000  Uiso   1.00
C57    C     0.90145   0.16776   0.72520   0.00000  Uiso   1.00
C58    C     0.83494   0.10568   0.66466   0.00000  Uiso   1.00
C59    C     0.93577   0.06116   0.73069   0.00000  Uiso   1.00
C60    C     0.34207   0.45153   0.30065   0.00000  Uiso   1.00
Sm61   Sm    0.39475   0.31721   0.43011   0.00000  Uiso   1.00
Sm62   Sm    0.39227   0.39830   0.31617   0.00000  Uiso   1.00
C63    C     0.41692   0.31545   0.34443   0.00000  Uiso   1.00
C64    C     0.46158   0.41897   0.33454   0.00000  Uiso   1.00
O65    O     0.43640   0.36402   0.42748   0.00000  Uiso   1.00
O66    O     0.45616   0.31400   0.44798   0.00000  Uiso   1.00
O67    O     0.38763   0.42728   0.37380   0.00000  Uiso   1.00
O68    O     0.39261   0.37423   0.40222   0.00000  Uiso   1.00
O69    O     0.33148   0.32797   0.42893   0.00000  Uiso   1.00
O70    O     0.35765   0.34135   0.47851   0.00000  Uiso   1.00
O71    O     0.33214   0.42254   0.31909   0.00000  Uiso   1.00
O72    O     0.37799   0.45226   0.28911   0.00000  Uiso   1.00
O73    O     0.42009   0.29567   0.37328   0.00000  Uiso   1.00
O74    O     0.39234   0.34280   0.34658   0.00000  Uiso   1.00
O75    O     0.42975   0.43352   0.34839   0.00000  Uiso   1.00
O76    O     0.45771   0.39454   0.31061   0.00000  Uiso   1.00
C77    C     0.46405   0.34689   0.43993   0.00000  Uiso   1.00
C78    C     0.38649   0.40930   0.40439   0.00000  Uiso   1.00
C79    C     0.32690   0.34118   0.46179   0.00000  Uiso   1.00
C80    C     0.29177   0.73413   0.91833   0.00000  Uiso   1.00
C81    C     0.35464   0.76069   0.92086   0.00000  Uiso   1.00
H82    H     0.47427   0.67811  -0.01066   0.00000  Uiso   1.00
C83    C     0.33823   0.70592   0.95674   0.00000  Uiso   1.00
C84    C     0.30236   0.70603   0.94268   0.00000  Uiso   1.00
N85    N     0.52679   0.77274   1.01831   0.00000  Uiso   1.00
N86    N     0.22092   0.72456   0.92708   0.00000  Uiso   1.00
O87    O     0.51978   0.71021   0.02883   0.00000  Uiso   1.00
O88    O     0.24872   0.75074   0.87547   0.00000  Uiso   1.00
H89    H     0.57525   0.74625   0.04067   0.00000  Uiso   1.00
H90    H     0.58586   0.78284   1.00828   0.00000  Uiso   1.00
H91    H     0.41512   0.67589   0.95895   0.00000  Uiso   1.00
H92    H     0.45489   0.79684   1.00371   0.00000  Uiso   1.00
H93    H     0.39652   0.79440   0.97318   0.00000  Uiso   1.00
H94    H     0.51684   0.79691   1.00591   0.00000  Uiso   1.00
H95    H     0.31182   0.78242   0.88751   0.00000  Uiso   1.00
H96    H     0.17949   0.75384   0.89723   0.00000  Uiso   1.00
H97    H     0.16261   0.74053   0.94316   0.00000  Uiso   1.00
H98    H     0.37465   0.78192   0.91185   0.00000  Uiso   1.00
H99    H     0.28309   0.68405   0.95094   0.00000  Uiso   1.00
H100   H     0.34503   0.68470   0.97644   0.00000  Uiso   1.00
H101   H     0.22417   0.71226   0.95262   0.00000  Uiso   1.00
C102   C     0.45766   0.70377   0.98588   0.00000  Uiso   1.00
C103   C     0.50655   0.73887   0.01621   0.00000  Uiso   1.00
C104   C     0.56495   0.77398   0.03140   0.00000  Uiso   1.00
C105   C     0.40133   0.73500   0.96347   0.00000  Uiso   1.00
C106   C     0.47017   0.73781   0.99822   0.00000  Uiso   1.00
C107   C     0.42373   0.70241   0.96857   0.00000  Uiso   1.00
C108   C     0.44741   0.77030   0.99341   0.00000  Uiso   1.00
C109   C     0.41362   0.76893   0.97598   0.00000  Uiso   1.00
C110   C     0.31880   0.76081   0.90678   0.00000  Uiso   1.00
C111   C     0.25265   0.73665   0.90545   0.00000  Uiso   1.00
C112   C     0.18123   0.73131   0.91796   0.00000  Uiso   1.00
C113   C     0.36445   0.73363   0.94651   0.00000  Uiso   1.00
C114   C     0.54040   0.02687   0.22409   0.00000  Uiso   1.00
C115   C     0.51927   0.07054   0.27414   0.00000  Uiso   1.00
H116   H     0.55472   0.22599   0.25779   0.00000  Uiso   1.00
C117   C     0.54312   0.09384   0.21422   0.00000  Uiso   1.00
C118   C     0.54914   0.05741   0.20096   0.00000  Uiso   1.00
N119   N     0.45321   0.26899   0.30338   0.00000  Uiso   1.00
N120   N     0.56629   0.97801   0.17779   0.00000  Uiso   1.00
O121   O     0.51746   0.27282   0.30372   0.00000  Uiso   1.00
O122   O     0.52483   0.96433   0.22684   0.00000  Uiso   1.00
H123   H     0.47103   0.32392   0.31365   0.00000  Uiso   1.00
H124   H     0.43147   0.32115   0.28617   0.00000  Uiso   1.00
H125   H     0.57053   0.16212   0.23760   0.00000  Uiso   1.00
H126   H     0.44582   0.19209   0.31221   0.00000  Uiso   1.00
H127   H     0.46194   0.12800   0.29219   0.00000  Uiso   1.00
H128   H     0.43014   0.25280   0.29835   0.00000  Uiso   1.00
H129   H     0.51900   0.01129   0.27982   0.00000  Uiso   1.00
H130   H     0.54681   0.94674   0.13505   0.00000  Uiso   1.00
H131   H     0.54852   0.92176   0.17770   0.00000  Uiso   1.00
H132   H     0.50793   0.07502   0.30265   0.00000  Uiso   1.00
H133   H     0.55909   0.05357   0.17211   0.00000  Uiso   1.00
H134   H     0.54967   0.11656   0.19541   0.00000  Uiso   1.00
H135   H     0.58415   0.99744   0.16427   0.00000  Uiso   1.00
C136   C     0.53415   0.20489   0.26553   0.00000  Uiso   1.00
C137   C     0.49035   0.25368   0.29872   0.00000  Uiso   1.00
C138   C     0.44442   0.30889   0.31030   0.00000  Uiso   1.00
C139   C     0.51770   0.13985   0.26361   0.00000  Uiso   1.00
C140   C     0.49886   0.21439   0.28646   0.00000  Uiso   1.00
C141   C     0.54325   0.16827   0.25393   0.00000  Uiso   1.00
C142   C     0.47303   0.18604   0.29581   0.00000  Uiso   1.00
C143   C     0.48249   0.14918   0.28473   0.00000  Uiso   1.00
C144   C     0.52589   0.03403   0.26106   0.00000  Uiso   1.00
C145   C     0.54358   0.98792   0.20979   0.00000  Uiso   1.00
C146   C     0.56362   0.94224   0.15912   0.00000  Uiso   1.00
C147   C     0.52716   0.10093   0.25068   0.00000  Uiso   1.00
C148   C     0.57976   0.30741   0.48668   0.00000  Uiso   1.00
C149   C     0.64600   0.28389   0.48851   0.00000  Uiso   1.00
H150   H     0.71685   0.27191   0.62341   0.00000  Uiso   1.00
C151   C     0.61287   0.31593   0.54164   0.00000  Uiso   1.00
C152   C     0.57967   0.32028   0.52316   0.00000  Uiso   1.00
N153   N     0.82199   0.26324   0.56796   0.00000  Uiso   1.00
N154   N     0.52362   0.34724   0.47079   0.00000  Uiso   1.00
O155   O     0.79059   0.27856   0.62323   0.00000  Uiso   1.00
O156   O     0.54325   0.29617   0.43786   0.00000  Uiso   1.00
H157   H     0.85656   0.25199   0.61222   0.00000  Uiso   1.00
H158   H     0.88230   0.25353   0.56701   0.00000  Uiso   1.00
H159   H     0.65609   0.28070   0.59577   0.00000  Uiso   1.00
H160   H     0.77971   0.30376   0.52050   0.00000  Uiso   1.00
H161   H     0.71923   0.31190   0.49297   0.00000  Uiso   1.00
H162   H     0.82121   0.26099   0.53950   0.00000  Uiso   1.00
H163   H     0.61389   0.27751   0.44227   0.00000  Uiso   1.00
H164   H     0.51931   0.36157   0.41479   0.00000  Uiso   1.00
H165   H     0.49700   0.39422   0.44793   0.00000  Uiso   1.00
H166   H     0.67127   0.26940   0.47470   0.00000  Uiso   1.00
H167   H     0.55425   0.33396   0.53751   0.00000  Uiso   1.00
H168   H     0.61244   0.32714   0.56923   0.00000  Uiso   1.00
H169   H     0.52539   0.36347   0.49419   0.00000  Uiso   1.00
C170   C     0.71768   0.28107   0.59503   0.00000  Uiso   1.00
C171   C     0.78986   0.27646   0.58991   0.00000  Uiso   1.00
C172   C     0.85525   0.24470   0.58279   0.00000  Uiso   1.00
C173   C     0.68301   0.29619   0.54201   0.00000  Uiso   1.00
C174   C     0.75322   0.28602   0.57390   0.00000  Uiso   1.00
C175   C     0.68290   0.28611   0.57925   0.00000  Uiso   1.00
C176   C     0.75310   0.29816   0.53724   0.00000  Uiso   1.00
C177   C     0.71840   0.30301   0.52145   0.00000  Uiso   1.00
C178   C     0.61294   0.28815   0.47012   0.00000  Uiso   1.00
C179   C     0.54725   0.31599   0.46422   0.00000  Uiso   1.00
C180   C     0.50208   0.36401   0.44215   0.00000  Uiso   1.00
C181   C     0.64669   0.29858   0.52404   0.00000  Uiso   1.00
C182   C     0.76635   0.98218   0.94273   0.00000  Uiso   1.00
C183   C     0.77558   0.02814   0.89397   0.00000  Uiso   1.00
H184   H     0.71993   1.00076   0.75205   0.00000  Uiso   1.00
C185   C     0.75636   0.96649   0.87955   0.00000  Uiso   1.00
C186   C     0.75675   0.95639   0.91659   0.00000  Uiso   1.00
N187   N     0.78187   0.08050   0.70387   0.00000  Uiso   1.00
N188   N     0.74884   0.93979   0.99704   0.00000  Uiso   1.00
O189   O     0.76482   0.02269   0.69106   0.00000  Uiso   1.00
O190   O     0.78716   0.98958   0.00119   0.00000  Uiso   1.00
H191   H     0.79591   0.06684   0.64732   0.00000  Uiso   1.00
H192   H     0.77482   0.11294   0.65662   0.00000  Uiso   1.00
H193   H     0.71742   0.98249   0.81702   0.00000  Uiso   1.00
H194   H     0.82112   0.06295   0.76384   0.00000  Uiso   1.00
H195   H     0.81890   0.04477   0.82841   0.00000  Uiso   1.00
H196   H     0.78271   0.10063   0.72437   0.00000  Uiso   1.00
H197   H     0.78356   1.03851   0.95038   0.00000  Uiso   1.00
H198   H     0.79260   0.92686   0.03234   0.00000  Uiso   1.00
H199   H     0.76921   0.88802   0.01517   0.00000  Uiso   1.00
H200   H     0.78278   0.05617   0.88596   0.00000  Uiso   1.00
H201   H     0.75063   0.92805   0.92438   0.00000  Uiso   1.00
H202   H     0.74952   0.94582   0.85999   0.00000  Uiso   1.00
H203   H     0.72462   0.93071   0.98551   0.00000  Uiso   1.00
C204   C     0.74151   1.01057   0.76865   0.00000  Uiso   1.00
C205   C     0.77191   0.04520   0.71414   0.00000  Uiso   1.00
C206   C     0.79508   0.09109   0.66592   0.00000  Uiso   1.00
C207   C     0.76750   1.01281   0.82815   0.00000  Uiso   1.00
C208   C     0.77006   0.03406   0.75333   0.00000  Uiso   1.00
C209   C     0.74018   1.00008   0.80575   0.00000  Uiso   1.00
C210   C     0.79787   0.04605   0.77539   0.00000  Uiso   1.00
C211   C     0.79663   0.03552   0.81234   0.00000  Uiso   1.00
C212   C     0.77581   1.01811   0.93096   0.00000  Uiso   1.00
C213   C     0.76841   0.97142   0.98177   0.00000  Uiso   1.00
C214   C     0.76445   0.91692   0.02559   0.00000  Uiso   1.00
C215   C     0.76604   1.00242   0.86775   0.00000  Uiso   1.00
C216   C     0.73484   0.94878   0.30304   0.00000  Uiso   1.00
C217   C     0.72409   0.97904   0.36275   0.00000  Uiso   1.00
H218   H     0.85719   0.98518   0.44651   0.00000  Uiso   1.00
C219   C     0.78258   0.94123   0.34666   0.00000  Uiso   1.00
C220   C     0.77046   0.93405   0.31228   0.00000  Uiso   1.00
N221   N     0.79184   0.01491   0.54113   0.00000  Uiso   1.00
N222   N     0.74737   0.93827   0.23641   0.00000  Uiso   1.00
O223   O     0.84804   0.98376   0.51777   0.00000  Uiso   1.00
O224   O     0.68909   0.92833   0.26624   0.00000  Uiso   1.00
H225   H     0.78106   0.02016   0.59885   0.00000  Uiso   1.00
H226   H     0.82844   0.00190   0.58300   0.00000  Uiso   1.00
H227   H     0.83392   0.97456   0.38696   0.00000  Uiso   1.00
H228   H     0.74018  -0.01504   0.49881   0.00000  Uiso   1.00
H229   H     0.71693   0.97260   0.43941   0.00000  Uiso   1.00
H230   H     0.76620   0.02852   0.53497   0.00000  Uiso   1.00
H231   H     0.68387   0.98251   0.32182   0.00000  Uiso   1.00
H232   H     0.74231   0.88099   0.22608   0.00000  Uiso   1.00
H233   H     0.77996   0.90291   0.19803   0.00000  Uiso   1.00
H234   H     0.70607   0.99714   0.38160   0.00000  Uiso   1.00
H235   H     0.78848   0.91609   0.29321   0.00000  Uiso   1.00
H236   H     0.80954   0.92821   0.35339   0.00000  Uiso   1.00
H237   H     0.77218   0.95366   0.23640   0.00000  Uiso   1.00
C238   C     0.82648   0.98268   0.44523   0.00000  Uiso   1.00
C239   C     0.81519   0.99421   0.51285   0.00000  Uiso   1.00
C240   C     0.80535   0.02249   0.57682   0.00000  Uiso   1.00
C241   C     0.77353   0.97245   0.40839   0.00000  Uiso   1.00
C242   C     0.80050   0.98658   0.47716   0.00000  Uiso   1.00
C243   C     0.81314   0.97621   0.41118   0.00000  Uiso   1.00
C244   C     0.76086   0.98306   0.47453   0.00000  Uiso   1.00
C245   C     0.74752   0.97596   0.44047   0.00000  Uiso   1.00
C246   C     0.71149   0.97099   0.32857   0.00000  Uiso   1.00
C247   C     0.72181   0.93871   0.26747   0.00000  Uiso   1.00
C248   C     0.74973   0.90706   0.21087   0.00000  Uiso   1.00
C249   C     0.75979   0.96417   0.37221   0.00000  Uiso   1.00
C250   C     0.23657   0.52060   0.68472   0.00000  Uiso   1.00
C251   C     0.22541   0.50348   0.62220   0.00000  Uiso   1.00
H252   H     0.34266   0.54462   0.50479   0.00000  Uiso   1.00
C253   C     0.28667   0.52789   0.63397   0.00000  Uiso   1.00
C254   C     0.27368   0.53137   0.67136   0.00000  Uiso   1.00
N255   N     0.34660   0.44552   0.45224   0.00000  Uiso   1.00
N256   N     0.23609   0.54881   0.74676   0.00000  Uiso   1.00
O257   O     0.36245   0.50507   0.44969   0.00000  Uiso   1.00
O258   O     0.20386   0.49720   0.73843   0.00000  Uiso   1.00
H259   H     0.40726   0.45077   0.43786   0.00000  Uiso   1.00
H260   H     0.39311   0.40993   0.46238   0.00000  Uiso   1.00
H261   H     0.30953   0.55860   0.56523   0.00000  Uiso   1.00
H262   H     0.28237   0.44202   0.50275   0.00000  Uiso   1.00
H263   H     0.25113   0.45532   0.56381   0.00000  Uiso   1.00
H264   H     0.32547   0.42647   0.45923   0.00000  Uiso   1.00
H265   H     0.18381   0.49808   0.66943   0.00000  Uiso   1.00
H266   H     0.23782   0.51763   0.79622   0.00000  Uiso   1.00
H267   H     0.25515   0.56367   0.79747   0.00000  Uiso   1.00
H268   H     0.20621   0.49281   0.60359   0.00000  Uiso   1.00
H269   H     0.29337   0.54109   0.69000   0.00000  Uiso   1.00
H270   H     0.31601   0.53504   0.62492   0.00000  Uiso   1.00
H271   H     0.24967   0.57176   0.73453   0.00000  Uiso   1.00
C272   C     0.32191   0.52529   0.51673   0.00000  Uiso   1.00
C273   C     0.34207   0.48151   0.46472   0.00000  Uiso   1.00
C274   C     0.38502   0.42937   0.44048   0.00000  Uiso   1.00
C275   C     0.27811   0.50784   0.56966   0.00000  Uiso   1.00
C276   C     0.31604   0.49188   0.49856   0.00000  Uiso   1.00
C277   C     0.30324   0.53316   0.55171   0.00000  Uiso   1.00
C278   C     0.28881   0.46767   0.51557   0.00000  Uiso   1.00
C279   C     0.27020   0.47554   0.55073   0.00000  Uiso   1.00
C280   C     0.21253   0.50665   0.65979   0.00000  Uiso   1.00
C281   C     0.22419   0.52152   0.72484   0.00000  Uiso   1.00
C282   C     0.23264   0.54671   0.78704   0.00000  Uiso   1.00
C283   C     0.26282   0.51373   0.60892   0.00000  Uiso   1.00
C284   C     0.26480   0.49068   0.20543   0.00000  Uiso   1.00
C285   C     0.21504   0.50805   0.16546   0.00000  Uiso   1.00
H286   H     0.25946   0.58952   0.02983   0.00000  Uiso   1.00
C287   C     0.28236   0.51321   0.14302   0.00000  Uiso   1.00
C288   C     0.29305   0.50002   0.17688   0.00000  Uiso   1.00
N289   N     0.16714   0.55934   0.98077   0.00000  Uiso   1.00
N290   N     0.30818   0.48762   0.25605   0.00000  Uiso   1.00
O291   O     0.23103   0.56498   0.96822   0.00000  Uiso   1.00
O292   O     0.25254   0.45788   0.26045   0.00000  Uiso   1.00
H293   H     0.18527   0.52297   0.93574   0.00000  Uiso   1.00
H294   H     0.13580   0.52095   0.95379   0.00000  Uiso   1.00
H295   H     0.27651   0.57084   0.09104   0.00000  Uiso   1.00
H296   H     0.16589   0.51423   0.04024   0.00000  Uiso   1.00
H297   H     0.18361   0.49455   0.10029   0.00000  Uiso   1.00
H298   H     0.14362   0.56363   1.00072   0.00000  Uiso   1.00
H299   H     0.20320   0.48772   0.22051   0.00000  Uiso   1.00
H300   H     0.28638   0.47846   0.31209   0.00000  Uiso   1.00
H301   H     0.32528   0.50916   0.30539   0.00000  Uiso   1.00
H302   H     0.18460   0.51150   0.16209   0.00000  Uiso   1.00
H303   H     0.32347   0.49661   0.18024   0.00000  Uiso   1.00
H304   H     0.30489   0.51932   0.12141   0.00000  Uiso   1.00
H305   H     0.32823   0.50324   0.24011   0.00000  Uiso   1.00
C306   C     0.24242   0.56916   0.04529   0.00000  Uiso   1.00
C307   C     0.20375   0.56049   0.99138   0.00000  Uiso   1.00
C308   C     0.15953   0.54027   0.94688   0.00000  Uiso   1.00
C309   C     0.23159   0.53098   0.10063   0.00000  Uiso   1.00
C310   C     0.21107   0.55360   0.03035   0.00000  Uiso   1.00
C311   C     0.25237   0.55820   0.08018   0.00000  Uiso   1.00
C312   C     0.18956   0.52743   0.05132   0.00000  Uiso   1.00
C313   C     0.19980   0.51610   0.08583   0.00000  Uiso   1.00
C314   C     0.22572   0.49453   0.19908   0.00000  Uiso   1.00
C315   C     0.27500   0.47741   0.24205   0.00000  Uiso   1.00
C316   C     0.31407   0.48312   0.29508   0.00000  Uiso   1.00
C317   C     0.24318   0.51755   0.13688   0.00000  Uiso   1.00
C318   C     0.02460   0.22742   0.56902   0.00000  Uiso   1.00
C319   C     0.08683   0.25564   0.56906   0.00000  Uiso   1.00
H320   H     0.15239   0.34419   0.45193   0.00000  Uiso   1.00
C321   C     0.05972   0.24678   0.51133   0.00000  Uiso   1.00
C322   C     0.02744   0.23080   0.53042   0.00000  Uiso   1.00
N323   N     0.25959   0.32926   0.48398   0.00000  Uiso   1.00
N324   N     0.98151   0.17425   0.57769   0.00000  Uiso   1.00
O325   O     0.22579   0.34869   0.43771   0.00000  Uiso   1.00
O326   O     0.97915   0.22000   0.61982   0.00000  Uiso   1.00
H327   H     0.27949   0.38019   0.46029   0.00000  Uiso   1.00
H328   H     0.29239   0.37027   0.50558   0.00000  Uiso   1.00
H329   H     0.09436   0.31417   0.47897   0.00000  Uiso   1.00
H330   H     0.22304   0.26547   0.50797   0.00000  Uiso   1.00
H331   H     0.16499   0.23740   0.53659   0.00000  Uiso   1.00
H332   H     0.26162   0.31199   0.50677   0.00000  Uiso   1.00
H333   H     0.05276   0.23819   0.61789   0.00000  Uiso   1.00
H334   H     0.96744   0.15465   0.63277   0.00000  Uiso   1.00
H335   H     0.99012   0.12131   0.60046   0.00000  Uiso   1.00
H336   H     0.10967   0.26477   0.58450   0.00000  Uiso   1.00
H337   H     0.00482   0.22105   0.51508   0.00000  Uiso   1.00
H338   H     0.06152   0.24890   0.48157   0.00000  Uiso   1.00
H339   H     0.99054   0.16573   0.55068   0.00000  Uiso   1.00
C340   C     0.15567   0.32055   0.46997   0.00000  Uiso   1.00
C341   C     0.22714   0.32952   0.46525   0.00000  Uiso   1.00
C342   C     0.28881   0.35749   0.47847   0.00000  Uiso   1.00
C343   C     0.12521   0.27418   0.51063   0.00000  Uiso   1.00
C344   C     0.19256   0.30836   0.47890   0.00000  Uiso   1.00
C345   C     0.12238   0.30349   0.48548   0.00000  Uiso   1.00
C346   C     0.19532   0.27721   0.50202   0.00000  Uiso   1.00
C347   C     0.16202   0.26071   0.51810   0.00000  Uiso   1.00
C348   C     0.05422   0.24068   0.58815   0.00000  Uiso   1.00
C349   C     0.99285   0.20774   0.58989   0.00000  Uiso   1.00
C350   C     0.96863   0.14506   0.60370   0.00000  Uiso   1.00
C351   C     0.09004   0.25870   0.53046   0.00000  Uiso   1.00
C352   C     0.04164   0.75624   0.73563   0.00000  Uiso   1.00
C353   C    -0.00203   0.79893   0.70640   0.00000  Uiso   1.00
H354   H     0.90606   0.90883   0.79777   0.00000  Uiso   1.00
C355   C     1.00754   0.80721   0.77063   0.00000  Uiso   1.00
C356   C     0.03304   0.77613   0.76883   0.00000  Uiso   1.00
N357   N     0.94933   0.99597   0.74510   0.00000  Uiso   1.00
N358   N     0.08342   0.70671   0.76156   0.00000  Uiso   1.00
O359   O     0.89288   0.97544   0.77143   0.00000  Uiso   1.00
O360   O     0.08876   0.71948   0.70100   0.00000  Uiso   1.00
H361   H     0.91895   0.03566   0.78202   0.00000  Uiso   1.00
H362   H     0.96976   0.04137   0.77258   0.00000  Uiso   1.00
H363   H     0.93443   0.84555   0.79185   0.00000  Uiso   1.00
H364   H     0.96962   0.93828   0.69451   0.00000  Uiso   1.00
H365   H     0.99760   0.87504   0.68850   0.00000  Uiso   1.00
H366   H     0.97589   0.98973   0.72989   0.00000  Uiso   1.00
H367   H     0.02901   0.75282   0.67874   0.00000  Uiso   1.00
H368   H     0.14422   0.69950   0.75414   0.00000  Uiso   1.00
H369   H     0.11839   0.66390   0.73391   0.00000  Uiso   1.00
H370   H     0.98509   0.80769   0.68182   0.00000  Uiso   1.00
H371   H     0.04746   0.76922   0.79299   0.00000  Uiso   1.00
H372   H     1.00288   0.82298   0.79609   0.00000  Uiso   1.00
H373   H     0.06801   0.71050   0.78750   0.00000  Uiso   1.00
C374   C     0.92556   0.90156   0.77353   0.00000  Uiso   1.00
C375   C     0.92447   0.96810   0.75471   0.00000  Uiso   1.00
C376   C     0.94348   0.03371   0.76002   0.00000  Uiso   1.00
C377   C     0.96852   0.85558   0.73996   0.00000  Uiso   1.00
C378   C     0.93654   0.92872   0.74722   0.00000  Uiso   1.00
C379   C     0.94179   0.86545   0.77020   0.00000  Uiso   1.00
C380   C     0.96143   0.91826   0.71581   0.00000  Uiso   1.00
C381   C     0.97710   0.88194   0.71213   0.00000  Uiso   1.00
C382   C     0.02313   0.76759   0.70468   0.00000  Uiso   1.00
C383   C     0.07243   0.72627   0.73168   0.00000  Uiso   1.00
C384   C     0.11834   0.68236   0.75836   0.00000  Uiso   1.00
C385   C     0.99050   0.81944   0.73922   0.00000  Uiso   1.00
C386   C     0.91405   0.29899   0.76068   0.00000  Uiso   1.00
C387   C     0.93286   0.35599   0.78813   0.00000  Uiso   1.00
H388   H     0.96448   0.48366   0.69912   0.00000  Uiso   1.00
C389   C     0.94908   0.34479   0.72279   0.00000  Uiso   1.00
C390   C     0.93137   0.31058   0.72621   0.00000  Uiso   1.00
N391   N     1.01618   0.53410   0.78015   0.00000  Uiso   1.00
N392   N     0.90511   0.23300   0.74400   0.00000  Uiso   1.00
O393   O     0.01188   0.53223   0.71755   0.00000  Uiso   1.00
O394   O     0.86678   0.26191   0.78934   0.00000  Uiso   1.00
H395   H     0.03303   0.58426   0.75270   0.00000  Uiso   1.00
H396   H     1.00402   0.58974   0.79615   0.00000  Uiso   1.00
H397   H     0.94022   0.42083   0.70146   0.00000  Uiso   1.00
H398   H     1.02298   0.46003   0.79605   0.00000  Uiso   1.00
H399   H     0.99780   0.39790   0.79881   0.00000  Uiso   1.00
H400   H     1.00963   0.52115   0.80557   0.00000  Uiso   1.00
H401   H     0.90178   0.31398   0.81838   0.00000  Uiso   1.00
H402   H     0.85464   0.20215   0.74888   0.00000  Uiso   1.00
H403   H     0.88975   0.18884   0.78007   0.00000  Uiso   1.00
H404   H     0.93270   0.37336   0.81236   0.00000  Uiso   1.00
H405   H     0.93041   0.29383   0.70174   0.00000  Uiso   1.00
H406   H     0.96228   0.35324   0.69602   0.00000  Uiso   1.00
H407   H     0.92891   0.23388   0.72409   0.00000  Uiso   1.00
C408   C     0.97227   0.46505   0.72080   0.00000  Uiso   1.00
C409   C     0.00838   0.51570   0.74690   0.00000  Uiso   1.00
C410   C     0.02772   0.57263   0.78094   0.00000  Uiso   1.00
C411   C     0.96698   0.40471   0.75046   0.00000  Uiso   1.00
C412   C     0.99496   0.47717   0.74784   0.00000  Uiso   1.00
C413   C     0.95849   0.42913   0.72205   0.00000  Uiso   1.00
C414   C     1.00443   0.45223   0.77556   0.00000  Uiso   1.00
C415   C     0.99037   0.41648   0.77697   0.00000  Uiso   1.00
C416   C     0.91499   0.32211   0.79151   0.00000  Uiso   1.00
C417   C     0.89376   0.26371   0.76526   0.00000  Uiso   1.00
C418   C     0.88604   0.19790   0.75139   0.00000  Uiso   1.00
C419   C     0.94982   0.36782   0.75375   0.00000  Uiso   1.00
C420   C     0.94457   0.71975   0.93297   0.00000  Uiso   1.00
C421   C     0.87659   0.74034   0.93847   0.00000  Uiso   1.00
H422   H     0.79526   0.71902   0.08162   0.00000  Uiso   1.00
C423   C     0.91156   0.73897   0.99242   0.00000  Uiso   1.00
C424   C     0.94512   0.72689   0.97090   0.00000  Uiso   1.00
N425   N     0.72497   0.80641   0.08266   0.00000  Uiso   1.00
N426   N     1.00767   0.68351   0.92743   0.00000  Uiso   1.00
O427   O     0.72342   0.74491   0.09318   0.00000  Uiso   1.00
O428   O     0.97354   0.69076   0.87905   0.00000  Uiso   1.00
H429   H     0.69510   0.79303   0.13490   0.00000  Uiso   1.00
H430   H     0.71530   0.83752   0.13144   0.00000  Uiso   1.00
H431   H     0.85457   0.70867   0.04072   0.00000  Uiso   1.00
H432   H     0.75668   0.80375   1.00812   0.00000  Uiso   1.00
H433   H     0.81646   0.79342   0.96700   0.00000  Uiso   1.00
H434   H     0.73689   0.82786   0.06650   0.00000  Uiso   1.00
H435   H     0.90864   0.72349   0.88769   0.00000  Uiso   1.00
H436   H     0.00434   0.63131   0.90056   0.00000  Uiso   1.00
H437   H     0.02191   0.62943   0.94486   0.00000  Uiso   1.00
H438   H     0.85007   0.74433   0.92559   0.00000  Uiso   1.00
H439   H     0.97055   0.72170   0.98498   0.00000  Uiso   1.00
H440   H     0.91251   0.74279   0.02178   0.00000  Uiso   1.00
H441   H     1.01661   0.69547   0.95094   0.00000  Uiso   1.00
C442   C     0.79938   0.73516   0.05649   0.00000  Uiso   1.00
C443   C     0.73802   0.77051   0.07546   0.00000  Uiso   1.00
C444   C     0.70026   0.81714   0.11613   0.00000  Uiso   1.00
C445   C     0.84017   0.75050   1.00087   0.00000  Uiso   1.00
C446   C     0.77168   0.76240   0.04824   0.00000  Uiso   1.00
C447   C     0.83341   0.72948   0.03326   0.00000  Uiso   1.00
C448   C     0.77792   0.78298   0.01545   0.00000  Uiso   1.00
C449   C     0.81187   0.77691   0.99183   0.00000  Uiso   1.00
C450   C     0.91023   0.72833   0.91680   0.00000  Uiso   1.00
C451   C     0.97661   0.69823   0.91121   0.00000  Uiso   1.00
C452   C     0.02269   0.64568   0.91887   0.00000  Uiso   1.00
C453   C     0.87666   0.74418   0.97675   0.00000  Uiso   1.00
C454   C     0.52555   0.53074   0.32632   0.00000  Uiso   1.00
C455   C     0.54720   0.59422   0.32792   0.00000  Uiso   1.00
H456   H     0.53804   0.68513   0.19568   0.00000  Uiso   1.00
C457   C     0.53619   0.56676   0.26969   0.00000  Uiso   1.00
C458   C     0.52493   0.53416   0.28789   0.00000  Uiso   1.00
N459   N     0.58516   0.76695   0.23265   0.00000  Uiso   1.00
N460   N     0.51261   0.46286   0.32845   0.00000  Uiso   1.00
O461   O     0.60488   0.73173   0.18271   0.00000  Uiso   1.00
O462   O     0.50415   0.49813   0.37961   0.00000  Uiso   1.00
H463   H     0.63487   0.79672   0.21550   0.00000  Uiso   1.00
H464   H     0.59562   0.82367   0.23927   0.00000  Uiso   1.00
H465   H     0.51864   0.62821   0.22793   0.00000  Uiso   1.00
H466   H     0.61760   0.70485   0.27566   0.00000  Uiso   1.00
H467   H     0.60127   0.64634   0.30633   0.00000  Uiso   1.00
H468   H     0.57092   0.76771   0.25935   0.00000  Uiso   1.00
H469   H     0.53736   0.55989   0.37565   0.00000  Uiso   1.00
H470   H     0.49657   0.43120   0.37715   0.00000  Uiso   1.00
H471   H     0.52120   0.40570   0.33906   0.00000  Uiso   1.00
H472   H     0.55464   0.61738   0.34429   0.00000  Uiso   1.00
H473   H     0.51523   0.51211   0.27155   0.00000  Uiso   1.00
H474   H     0.53627   0.56782   0.24001   0.00000  Uiso   1.00
H475   H     0.52284   0.46038   0.30062   0.00000  Uiso   1.00
C476   C     0.55144   0.67690   0.22015   0.00000  Uiso   1.00
C477   C     0.59029   0.73351   0.21457   0.00000  Uiso   1.00
C478   C     0.60290   0.80098   0.21880   0.00000  Uiso   1.00
C479   C     0.55813   0.63255   0.27007   0.00000  Uiso   1.00
C480   C     0.57871   0.69921   0.23375   0.00000  Uiso   1.00
C481   C     0.54077   0.64415   0.23845   0.00000  Uiso   1.00
C482   C     0.59590   0.68815   0.26531   0.00000  Uiso   1.00
C483   C     0.58621   0.65484   0.28297   0.00000  Uiso   1.00
C484   C     0.53673   0.56132   0.34603   0.00000  Uiso   1.00
C485   C     0.51350   0.49631   0.34641   0.00000  Uiso   1.00
C486   C     0.49956   0.42865   0.34661   0.00000  Uiso   1.00
C487   C     0.54713   0.59741   0.28944   0.00000  Uiso   1.00
loop_
_geom_bond_atom_site_label_1
_geom_bond_atom_site_label_2
_geom_bond_distance
_geom_bond_site_symmetry_2
_ccdc_geom_bond_type
C0     O11     1.271   .     A
C0     O12     1.280   .     A
C0     C410    1.494   .     S
Sm1    O5      2.254   .     S
Sm1    O6      2.259   .     S
Sm1    O8      2.255   .     S
Sm1    O9      2.248   .     S
Sm1    O10     2.274   .     S
Sm1    O13     2.254   .     S
Sm2    O7      2.276   .     S
Sm2    O11     2.257   .     S
Sm2    O12     2.260   .     S
Sm2    O14     2.254   .     S
Sm2    O15     2.247   .     S
Sm2    O16     2.248   .     S
C3     O13     1.273   .     A
C3     O14     1.275   .     A
C3     C308    1.502   .     S
C4     O15     1.269   .     A
C4     O16     1.269   .     A
C4     C282    1.493   .     S
O5     C17     1.267   .     A
O6     C17     1.269   .     A
O7     C18     1.281   .     A
O8     C18     1.273   .     A
O9     C19     1.260   .     A
O10    C19     1.269   .     A
C17    C112    1.494   .     S
C18    C384    1.498   .     S
C19    C452    1.490   .     S
C20    O31     1.270   .     A
C20    O32     1.265   .     A
C20    C478    1.494   .     S
Sm21   O25     2.228   .     S
Sm21   O26     2.214   .     S
Sm21   O28     2.299   .     S
Sm21   O29     2.210   .     S
Sm21   O30     2.236   .     S
Sm21   O33     2.264   .     S
Sm22   O27     2.246   .     S
Sm22   O31     2.263   .     S
Sm22   O32     2.260   .     S
Sm22   O34     2.291   .     S
Sm22   O35     2.224   .     S
Sm22   O36     2.234   .     S
C23    O33     1.273   .     A
C23    O34     1.284   .     A
C23    C444    1.493   .     S
C24    O35     1.281   .     A
C24    O36     1.282   .     A
C24    C104    1.494   .     S
O25    C37     1.284   .     A
O26    C37     1.279   .     A
O27    C38     1.258   .     A
O28    C38     1.275   .     A
O29    C39     1.276   .     A
O30    C39     1.284   .     A
C37    C214    1.491   .     S
C38    C146    1.500   .     S
C39    C248    1.488   .     S
C40    O51     1.277   .     A
C40    O52     1.276   .     A
C40    C240    1.491   .     S
Sm41   O45     2.240   .     S
Sm41   O46     2.238   .     S
Sm41   O48     2.264   .     S
Sm41   O49     2.238   .     S
Sm41   O50     2.235   .     S
Sm41   O53     2.252   .     S
Sm42   O47     2.264   .     S
Sm42   O51     2.239   .     S
Sm42   O52     2.233   .     S
Sm42   O54     2.297   .     S
Sm42   O55     2.257   .     S
Sm42   O56     2.281   .     S
C43    O53     1.266   .     A
C43    O54     1.283   .     A
C43    C350    1.496   .     S
C44    O55     1.260   .     A
C44    O56     1.265   .     A
C44    C172    1.494   .     S
O45    C57     1.278   .     A
O46    C57     1.281   .     A
O47    C58     1.271   .     A
O48    C58     1.272   .     A
O49    C59     1.280   .     A
O50    C59     1.280   .     A
C57    C418    1.493   .     S
C58    C206    1.501   .     S
C59    C376    1.491   .     S
C60    O71     1.280   .     A
C60    O72     1.280   .     A
C60    C316    1.494   .     S
Sm61   O65     2.265   .     S
Sm61   O66     2.298   .     S
Sm61   O68     2.290   .     S
Sm61   O69     2.227   .     S
Sm61   O70     2.232   .     S
Sm61   O73     2.291   .     S
Sm62   O67     2.336   .     S
Sm62   O71     2.228   .     S
Sm62   O72     2.237   .     S
Sm62   O74     2.282   .     S
Sm62   O75     2.270   .     S
Sm62   O76     2.266   .     S
C63    O73     1.280   .     A
C63    O74     1.275   .     A
C63    C138    1.503   .     S
C64    O75     1.264   .     A
C64    O76     1.261   .     A
C64    C486    1.492   .     S
O65    C77     1.246   .     A
O66    C77     1.254   .     A
O67    C78     1.286   .     A
O68    C78     1.273   .     A
O69    C79     1.282   .     A
O70    C79     1.286   .     A
C77    C180    1.494   .     S
C78    C274    1.498   .     S
C79    C342    1.499   .     S
C80    C84     1.407   .     A
C80    C110    1.407   .     A
C80    C111    1.486   .     S
C81    H98     1.083   .     S
C81    C110    1.398   .     A
C81    C113    1.405   .     A
H82    C102    1.083   1_554 S
C83    C84     1.398   .     A
C83    H100    1.083   .     S
C83    C113    1.405   .     A
C84    H99     1.081   .     S
N85    H94     1.043   .     S
N85    C103    1.440   1_556 S
N85    C104    1.460   1_556 S
N86    H101    1.045   .     S
N86    C111    1.376   .     S
N86    C112    1.466   .     S
O87    C103    1.221   .     D
O88    C111    1.222   .     D
H89    C104    1.110   .     S
H90    C104    1.111   1_556 S
H91    C107    1.083   .     S
H92    C108    1.080   .     S
H93    C109    1.083   .     S
H95    C110    1.083   .     S
H96    C112    1.111   .     S
H97    C112    1.112   .     S
C102   C106    1.408   .     A
C102   C107    1.399   .     A
C102   H82     1.083   1_556 S
C103   N85     1.440   1_554 S
C103   C106    1.488   1_554 S
C104   N85     1.460   1_554 S
C104   H90     1.111   1_554 S
C105   C107    1.405   .     A
C105   C109    1.404   .     A
C105   C113    1.485   .     S
C106   C108    1.407   .     A
C106   C103    1.488   1_556 S
C108   C109    1.397   .     A
C114   C118    1.408   .     A
C114   C144    1.410   .     A
C114   C145    1.493   1_545 S
C115   H132    1.083   .     S
C115   C144    1.401   .     A
C115   C147    1.406   .     A
H116   C136    1.083   .     S
C117   C118    1.400   .     A
C117   H134    1.082   .     S
C117   C147    1.406   .     A
C118   H133    1.080   .     S
N119   H128    1.044   .     S
N119   C137    1.379   .     S
N119   C138    1.473   .     S
N120   H135    1.044   .     S
N120   C145    1.379   .     S
N120   C146    1.469   .     S
O121   C137    1.221   .     D
O122   C145    1.222   .     D
H123   C138    1.110   .     S
H124   C138    1.111   .     S
H125   C141    1.083   .     S
H126   C142    1.082   .     S
H127   C143    1.083   .     S
H129   C144    1.084   .     S
H130   C146    1.112   .     S
H131   C146    1.112   .     S
C136   C140    1.408   .     A
C136   C141    1.400   .     A
C137   C140    1.493   .     S
C139   C141    1.405   .     A
C139   C143    1.408   .     A
C139   C147    1.493   .     S
C140   C142    1.407   .     A
C142   C143    1.404   .     A
C145   C114    1.493   1_565 S
C148   C152    1.409   .     A
C148   C178    1.405   .     A
C148   C179    1.486   .     S
C149   H166    1.083   .     S
C149   C178    1.394   .     A
C149   C181    1.403   .     A
H150   C170    1.083   .     S
C151   C152    1.401   .     A
C151   H168    1.083   .     S
C151   C181    1.405   .     A
C152   H167    1.081   .     S
N153   H162    1.044   .     S
N153   C171    1.376   .     S
N153   C172    1.464   .     S
N154   H169    1.044   .     S
N154   C179    1.373   .     S
N154   C180    1.462   .     S
O155   C171    1.220   .     D
O156   C179    1.222   .     D
H157   C172    1.111   .     S
H158   C172    1.110   .     S
H159   C175    1.083   .     S
H160   C176    1.082   .     S
H161   C177    1.083   .     S
H163   C178    1.083   .     S
H164   C180    1.111   .     S
H165   C180    1.112   .     S
C170   C174    1.407   .     A
C170   C175    1.399   .     A
C171   C174    1.485   .     S
C173   C175    1.404   .     A
C173   C177    1.406   .     A
C173   C181    1.483   .     S
C174   C176    1.405   .     A
C176   C177    1.396   .     A
C182   C186    1.407   .     A
C182   C212    1.404   .     A
C182   C213    1.482   .     S
C183   H200    1.082   .     S
C183   C212    1.395   1_545 A
C183   C215    1.406   1_545 A
H184   C204    1.083   .     S
C185   C186    1.398   .     A
C185   H202    1.083   .     S
C185   C215    1.406   .     A
C186   H201    1.082   .     S
N187   H196    1.046   .     S
N187   C205    1.372   .     S
N187   C206    1.467   .     S
N188   H203    1.045   .     S
N188   C213    1.434   .     S
N188   C214    1.460   1_556 S
O189   C205    1.220   .     D
O190   C213    1.220   1_554 D
H191   C206    1.104   .     S
H192   C206    1.111   .     S
H193   C209    1.083   .     S
H194   C210    1.083   .     S
H195   C211    1.083   .     S
H197   C212    1.083   .     S
H198   C214    1.109   .     S
H199   C214    1.109   .     S
C204   C209    1.400   .     A
C204   C208    1.404   1_565 A
C205   C208    1.478   .     S
C207   C209    1.408   .     A
C207   C215    1.487   .     S
C207   C211    1.406   1_565 A
C208   C210    1.403   .     A
C208   C204    1.404   1_545 A
C210   C211    1.395   .     A
C211   C207    1.406   1_545 A
C212   C183    1.395   1_565 A
C213   O190    1.220   1_556 D
C214   N188    1.460   1_554 S
C215   C183    1.406   1_565 A
C216   C220    1.402   .     A
C216   C246    1.400   .     A
C216   C247    1.468   .     S
C217   H234    1.082   .     S
C217   C246    1.398   .     A
C217   C249    1.408   .     A
H218   C238    1.083   .     S
C219   C220    1.391   .     A
C219   H236    1.083   .     S
C219   C249    1.406   .     A
C220   H235    1.084   .     S
N221   H230    1.045   .     S
N221   C240    1.459   .     S
N221   C239    1.435   1_545 S
N222   H237    1.046   .     S
N222   C247    1.366   .     S
N222   C248    1.456   .     S
O223   C239    1.221   .     D
O224   C247    1.220   .     D
H225   C240    1.111   .     S
H226   C240    1.111   .     S
H227   C243    1.083   .     S
H228   C244    1.083   1_545 S
H229   C245    1.082   .     S
H231   C246    1.083   .     S
H232   C248    1.115   .     S
H233   C248    1.112   .     S
C238   C242    1.402   .     A
C238   C243    1.393   .     A
C239   C242    1.477   .     S
C239   N221    1.435   1_565 S
C241   C243    1.406   .     A
C241   C245    1.406   .     A
C241   C249    1.484   .     S
C242   C244    1.405   .     A
C244   C245    1.397   .     A
C244   H228    1.083   1_565 S
C250   C254    1.404   .     A
C250   C280    1.405   .     A
C250   C281    1.482   .     S
C251   H268    1.083   .     S
C251   C280    1.400   .     A
C251   C283    1.407   .     A
H252   C272    1.083   .     S
C253   C254    1.395   .     A
C253   H270    1.083   .     S
C253   C283    1.406   .     A
C254   H269    1.083   .     S
N255   H264    1.039   .     S
N255   C273    1.372   .     S
N255   C274    1.460   .     S
N256   H271    1.045   .     S
N256   C281    1.372   .     S
N256   C282    1.463   .     S
O257   C273    1.221   .     D
O258   C281    1.221   .     D
H259   C274    1.112   .     S
H260   C274    1.110   .     S
H261   C277    1.082   .     S
H262   C278    1.078   .     S
H263   C279    1.083   .     S
H265   C280    1.083   .     S
H266   C282    1.111   .     S
H267   C282    1.111   .     S
C272   C276    1.407   .     A
C272   C277    1.395   .     A
C273   C276    1.493   .     S
C275   C277    1.404   .     A
C275   C279    1.405   .     A
C275   C283    1.487   .     S
C276   C278    1.410   .     A
C278   C279    1.399   .     A
C284   C288    1.407   .     A
C284   C314    1.406   .     A
C284   C315    1.489   .     S
C285   H302    1.082   .     S
C285   C314    1.397   .     A
C285   C317    1.407   .     A
H286   C306    1.083   .     S
C287   C288    1.401   .     A
C287   H304    1.082   .     S
C287   C317    1.408   .     A
C288   H303    1.081   .     S
N289   H298    1.045   .     S
N289   C307    1.373   .     S
N289   C308    1.468   .     S
N290   H305    1.044   .     S
N290   C315    1.375   .     S
N290   C316    1.466   .     S
O291   C307    1.220   .     D
O292   C315    1.221   .     D
H293   C308    1.112   .     S
H294   C308    1.112   .     S
H295   C311    1.083   .     S
H296   C312    1.082   .     S
H297   C313    1.082   .     S
H299   C314    1.084   .     S
H300   C316    1.111   .     S
H301   C316    1.112   .     S
C306   C310    1.407   .     A
C306   C311    1.403   .     A
C307   C310    1.487   1_556 S
C309   C311    1.409   .     A
C309   C313    1.407   .     A
C309   C317    1.494   .     S
C310   C312    1.404   .     A
C310   C307    1.487   1_554 S
C312   C313    1.398   .     A
C318   C322    1.405   .     A
C318   C348    1.404   .     A
C318   C349    1.481   1_455 S
C319   H336    1.083   .     S
C319   C348    1.397   .     A
C319   C351    1.404   .     A
H320   C340    1.083   .     S
C321   C322    1.404   .     A
C321   H338    1.083   .     S
C321   C351    1.407   .     A
C322   H337    1.083   .     S
N323   H332    1.043   .     S
N323   C341    1.379   .     S
N323   C342    1.468   .     S
N324   H339    1.045   .     S
N324   C349    1.374   .     S
N324   C350    1.467   .     S
O325   C341    1.220   .     D
O326   C349    1.221   .     D
H327   C342    1.110   .     S
H328   C342    1.112   .     S
H329   C345    1.083   .     S
H330   C346    1.081   .     S
H331   C347    1.083   .     S
H333   C348    1.084   .     S
H334   C350    1.111   .     S
H335   C350    1.111   .     S
C340   C344    1.410   .     A
C340   C345    1.402   .     A
C341   C344    1.494   .     S
C343   C345    1.403   .     A
C343   C347    1.405   .     A
C343   C351    1.485   .     S
C344   C346    1.407   .     A
C346   C347    1.399   .     A
C349   C318    1.481   1_655 S
C352   C356    1.407   .     A
C352   C382    1.407   .     A
C352   C383    1.486   .     S
C353   C382    1.397   .     A
C353   H370    1.083   1_455 S
C353   C385    1.403   1_455 A
H354   C374    1.083   .     S
C355   H372    1.083   .     S
C355   C385    1.405   .     A
C355   C356    1.397   1_655 A
C356   H371    1.081   .     S
C356   C355    1.397   1_455 A
N357   H366    1.045   .     S
N357   C375    1.374   .     S
N357   C376    1.464   1_565 S
N358   H373    1.044   .     S
N358   C383    1.374   .     S
N358   C384    1.464   .     S
O359   C375    1.221   .     D
O360   C383    1.222   .     D
H361   C376    1.110   .     S
H362   C376    1.110   .     S
H363   C379    1.083   .     S
H364   C380    1.083   .     S
H365   C381    1.083   .     S
H367   C382    1.083   .     S
H368   C384    1.111   .     S
H369   C384    1.113   .     S
H370   C353    1.083   1_655 S
C374   C378    1.404   .     A
C374   C379    1.397   .     A
C375   C378    1.480   .     S
C376   N357    1.464   1_545 S
C377   C379    1.404   .     A
C377   C381    1.405   .     A
C377   C385    1.481   .     S
C378   C380    1.405   .     A
C380   C381    1.397   .     A
C385   C353    1.403   1_655 A
C386   C390    1.407   .     A
C386   C416    1.404   .     A
C386   C417    1.480   .     S
C387   H404    1.083   .     S
C387   C416    1.392   .     A
C387   C419    1.402   .     A
H388   C408    1.083   .     S
C389   C390    1.400   .     A
C389   H406    1.083   .     S
C389   C419    1.406   .     A
C390   H405    1.082   .     S
N391   H400    1.044   .     S
N391   C409    1.438   1_655 S
N391   C410    1.462   1_655 S
N392   H407    1.045   .     S
N392   C417    1.373   .     S
N392   C418    1.464   .     S
O393   C409    1.220   .     D
O394   C417    1.222   .     D
H395   C410    1.111   .     S
H396   C410    1.111   1_655 S
H397   C413    1.083   .     S
H398   C414    1.082   .     S
H399   C415    1.083   .     S
H401   C416    1.083   .     S
H402   C418    1.111   .     S
H403   C418    1.113   .     S
C408   C412    1.407   .     A
C408   C413    1.397   .     A
C409   N391    1.438   1_455 S
C409   C412    1.482   1_455 S
C410   N391    1.462   1_455 S
C410   H396    1.111   1_455 S
C411   C413    1.403   .     A
C411   C415    1.404   .     A
C411   C419    1.479   .     S
C412   C414    1.405   .     A
C412   C409    1.482   1_655 S
C414   C415    1.396   .     A
C420   C424    1.409   .     A
C420   C450    1.410   .     A
C420   C451    1.491   .     S
C421   H438    1.083   .     S
C421   C450    1.398   .     A
C421   C453    1.403   .     A
H422   C442    1.084   .     S
C423   C424    1.393   .     A
C423   C453    1.401   .     A
C423   H440    1.083   1_556 S
C424   H439    1.078   .     S
N425   H434    1.044   .     S
N425   C443    1.369   .     S
N425   C444    1.462   .     S
N426   H441    1.042   .     S
N426   C451    1.373   .     S
N426   C452    1.461   1_655 S
O427   C443    1.222   .     D
O428   C451    1.220   .     D
H429   C444    1.113   .     S
H430   C444    1.104   .     S
H431   C447    1.083   .     S
H432   C448    1.082   1_556 S
H433   C449    1.083   .     S
H435   C450    1.083   .     S
H436   C452    1.113   .     S
H437   C452    1.111   .     S
H440   C423    1.083   1_554 S
C442   C446    1.401   .     A
C442   C447    1.392   .     A
C443   C446    1.476   .     S
C445   C449    1.404   .     A
C445   C453    1.479   .     S
C445   C447    1.405   1_556 A
C446   C448    1.407   .     A
C447   C445    1.405   1_554 A
C448   H432    1.082   1_554 S
C448   C449    1.399   1_554 A
C449   C448    1.399   1_556 A
C452   N426    1.461   1_455 S
C454   C458    1.408   .     A
C454   C484    1.407   .     A
C454   C485    1.492   .     S
C455   H472    1.082   .     S
C455   C484    1.398   .     A
C455   C487    1.407   .     A
H456   C476    1.083   .     S
C457   C458    1.398   .     A
C457   H474    1.082   .     S
C457   C487    1.406   .     A
C458   H473    1.080   .     S
N459   H468    1.046   .     S
N459   C477    1.370   .     S
N459   C478    1.461   .     S
N460   H475    1.043   .     S
N460   C485    1.375   .     S
N460   C486    1.464   .     S
O461   C477    1.220   .     D
O462   C485    1.221   .     D
H463   C478    1.112   .     S
H464   C478    1.111   .     S
H465   C481    1.082   .     S
H466   C482    1.084   .     S
H467   C483    1.082   .     S
H469   C484    1.083   .     S
H470   C486    1.111   .     S
H471   C486    1.111   .     S
C476   C480    1.399   .     A
C476   C481    1.398   .     A
C477   C480    1.468   .     S
C479   C481    1.410   .     A
C479   C483    1.409   .     A
C479   C487    1.492   .     S
C480   C482    1.400   .     A
C482   C483    1.397   .     A
