data_lcy+N394+E161
_audit_creation_date              2025-01-21
_audit_creation_method            'Materials Studio'
_symmetry_space_group_name_H-M    'P1'
_symmetry_Int_Tables_number       1
_symmetry_cell_setting            triclinic
loop_
_symmetry_equiv_pos_as_xyz
  x,y,z
_cell_length_a                    40.0064
_cell_length_b                    38.7409
_cell_length_c                    40.0938
_cell_angle_alpha                 94.7916
_cell_angle_beta                  97.0682
_cell_angle_gamma                 89.5785
loop_
_atom_site_label
_atom_site_type_symbol
_atom_site_fract_x
_atom_site_fract_y
_atom_site_fract_z
_atom_site_U_iso_or_equiv
_atom_site_adp_type
_atom_site_occupancy
Pr0    Pr    0.09435   0.66291   0.86087   0.00000  Uiso   1.00
Pr1    Pr    0.12814   0.61923   0.91713   0.00000  Uiso   1.00
O2     O     0.09407   0.65412   0.94831   0.00000  Uiso   1.00
O3     O     0.06726   0.68352   0.90556   0.00000  Uiso   1.00
O4     O     0.05620   0.68504   0.82063   0.00000  Uiso   1.00
O5     O     0.10018   0.71490   0.83995   0.00000  Uiso   1.00
O6     O     0.14454   0.66239   0.89036   0.00000  Uiso   1.00
O7     O     0.12692   0.71233   0.87801   0.00000  Uiso   1.00
C8     C     0.09094   0.58117   0.86511   0.00000  Uiso   1.00
C9     C     0.07118   0.67542   0.93648   0.00000  Uiso   1.00
C10    C     0.07247   0.71326   0.82057   0.00000  Uiso   1.00
C11    C     0.16007   0.58373   0.96626   0.00000  Uiso   1.00
C12    C     0.15342   0.61072   0.83973   0.00000  Uiso   1.00
C13    C     0.14872   0.69756   0.89536   0.00000  Uiso   1.00
O14    O     0.13148   0.63378   0.82941   0.00000  Uiso   1.00
O15    O     0.15690   0.60026   0.87045   0.00000  Uiso   1.00
O16    O     0.17295   0.61008   0.95545   0.00000  Uiso   1.00
O17    O     0.13085   0.57494   0.95135   0.00000  Uiso   1.00
O18    O     0.07996   0.61182   0.88020   0.00000  Uiso   1.00
O19    O     0.11958   0.57397   0.87630   0.00000  Uiso   1.00
Pr20   Pr    0.63790   0.86802   0.07767   0.00000  Uiso   1.00
Pr21   Pr    0.61419   0.81488   0.12260   0.00000  Uiso   1.00
O22    O     0.65190   0.78116   0.09487   0.00000  Uiso   1.00
O23    O     0.66619   0.82022   0.05860   0.00000  Uiso   1.00
O24    O     0.67148   0.90844   0.05969   0.00000  Uiso   1.00
O25    O     0.62739   0.89019   0.02678   0.00000  Uiso   1.00
O26    O     0.59449   0.83347   0.07287   0.00000  Uiso   1.00
O27    O     0.59777   0.86523   0.03097   0.00000  Uiso   1.00
C28    C     0.65261   0.86795   0.15734   0.00000  Uiso   1.00
C29    C     0.66896   0.79043   0.07135   0.00000  Uiso   1.00
C30    C     0.65389   0.90904   0.03081   0.00000  Uiso   1.00
C31    C     0.59048   0.76883   0.16069   0.00000  Uiso   1.00
C32    C     0.58353   0.89527   0.12722   0.00000  Uiso   1.00
C33    C     0.58060   0.84369   0.04190   0.00000  Uiso   1.00
O34    O     0.60284   0.90377   0.10543   0.00000  Uiso   1.00
O35    O     0.58247   0.86408   0.13761   0.00000  Uiso   1.00
O36    O     0.57463   0.77694   0.13281   0.00000  Uiso   1.00
O37    O     0.61849   0.78476   0.16943   0.00000  Uiso   1.00
O38    O     0.66067   0.85065   0.12811   0.00000  Uiso   1.00
O39    O     0.62654   0.85776   0.16539   0.00000  Uiso   1.00
Pr40   Pr    0.89461   0.15990   0.58371   0.00000  Uiso   1.00
Pr41   Pr    0.85045   0.12335   0.63100   0.00000  Uiso   1.00
O42    O     0.88515   0.15875   0.67059   0.00000  Uiso   1.00
O43    O     0.91837   0.18314   0.63582   0.00000  Uiso   1.00
O44    O     0.91682   0.20370   0.55837   0.00000  Uiso   1.00
O45    O     0.93909   0.15327   0.55443   0.00000  Uiso   1.00
O46    O     0.89138   0.10639   0.60093   0.00000  Uiso   1.00
O47    O     0.93606   0.13340   0.61983   0.00000  Uiso   1.00
C48    C     0.81827   0.17168   0.59241   0.00000  Uiso   1.00
C49    C     0.90846   0.18022   0.66515   0.00000  Uiso   1.00
C50    C     0.94008   0.18467   0.54761   0.00000  Uiso   1.00
C51    C     0.81360   0.09417   0.67262   0.00000  Uiso   1.00
C52    C     0.83712   0.10500   0.54768   0.00000  Uiso   1.00
C53    C     0.92187   0.10612   0.61982   0.00000  Uiso   1.00
O54    O     0.86050   0.12678   0.54335   0.00000  Uiso   1.00
O55    O     0.82814   0.09902   0.57710   0.00000  Uiso   1.00
O56    O     0.83595   0.07736   0.65780   0.00000  Uiso   1.00
O57    O     0.80899   0.12529   0.66472   0.00000  Uiso   1.00
O58    O     0.84956   0.17628   0.61069   0.00000  Uiso   1.00
O59    O     0.80702   0.14321   0.59453   0.00000  Uiso   1.00
Pr60   Pr    0.36908   0.40335   0.42165   0.00000  Uiso   1.00
Pr61   Pr    0.39077   0.33852   0.37908   0.00000  Uiso   1.00
O62    O     0.35786   0.31144   0.41288   0.00000  Uiso   1.00
O63    O     0.33910   0.36056   0.44017   0.00000  Uiso   1.00
O64    O     0.33662   0.44598   0.44447   0.00000  Uiso   1.00
O65    O     0.38253   0.43155   0.47326   0.00000  Uiso   1.00
O66    O     0.41553   0.37247   0.42193   0.00000  Uiso   1.00
O67    O     0.40407   0.39301   0.47041   0.00000  Uiso   1.00
C68    C     0.35765   0.38668   0.34157   0.00000  Uiso   1.00
C69    C     0.33887   0.32740   0.43326   0.00000  Uiso   1.00
C70    C     0.35558   0.44929   0.47264   0.00000  Uiso   1.00
C71    C     0.41188   0.28282   0.34318   0.00000  Uiso   1.00
C72    C     0.42493   0.41698   0.37306   0.00000  Uiso   1.00
C73    C     0.42189   0.37236   0.45634   0.00000  Uiso   1.00
O74    O     0.40742   0.43141   0.39572   0.00000  Uiso   1.00
O75    O     0.42307   0.38390   0.36197   0.00000  Uiso   1.00
O76    O     0.42995   0.29766   0.36876   0.00000  Uiso   1.00
O77    O     0.38313   0.29667   0.33555   0.00000  Uiso   1.00
O78    O     0.34695   0.37631   0.37077   0.00000  Uiso   1.00
O79    O     0.38419   0.37344   0.33545   0.00000  Uiso   1.00
H80    H     0.19947   0.66643   0.93166   0.00000  Uiso   1.00
C81    C     0.54751   0.83134   0.02544   0.00000  Uiso   1.00
C82    C     0.52694   0.85232   0.00478   0.00000  Uiso   1.00
C83    C     0.49355   0.84251  -0.00695   0.00000  Uiso   1.00
C84    C     0.48101   0.81071   0.00140   0.00000  Uiso   1.00
C85    C     0.50235   0.78876   0.02082   0.00000  Uiso   1.00
C86    C     0.53523   0.79957   0.03313   0.00000  Uiso   1.00
C87    C     0.47108   0.86656  -0.02706   0.00000  Uiso   1.00
C88    C     0.49005   0.75410   0.02884   0.00000  Uiso   1.00
C89    C     0.43552   0.78733   0.96003   0.00000  Uiso   1.00
C90    C     0.40145   0.77850   0.95045   0.00000  Uiso   1.00
C91    C     0.37853   0.78380   0.97440   0.00000  Uiso   1.00
C92    C     0.38986   0.79805   0.00726   0.00000  Uiso   1.00
C93    C     0.42396   0.80729   0.01541   0.00000  Uiso   1.00
C94    C     0.38978   0.76451   0.91765   0.00000  Uiso   1.00
C95    C     0.35583   0.75584   0.90876   0.00000  Uiso   1.00
C96    C     0.33285   0.76062   0.93259   0.00000  Uiso   1.00
C97    C     0.34424   0.77460   0.96553   0.00000  Uiso   1.00
C98    C     0.32147   0.77915   0.98972   0.00000  Uiso   1.00
C99    C     0.33314   0.79321   0.02249   0.00000  Uiso   1.00
C100   C     0.36693   0.80266   0.03113   0.00000  Uiso   1.00
C101   C     0.29876   0.75135   0.92444   0.00000  Uiso   1.00
C102   C     0.28765   0.76908   0.98051   0.00000  Uiso   1.00
C103   C     0.24302   0.74263   0.93987   0.00000  Uiso   1.00
C104   C     0.22331   0.80170   0.92146   0.00000  Uiso   1.00
C105   C     0.18602   0.74944   0.91185   0.00000  Uiso   1.00
C106   C     0.26244   0.68467   0.96000   0.00000  Uiso   1.00
C107   C     0.20434   0.69367   0.93009   0.00000  Uiso   1.00
C108   C     0.23594   0.70756   0.94331   0.00000  Uiso   1.00
C109   C     0.21751   0.76391   0.92491   0.00000  Uiso   1.00
C110   C     0.17959   0.71416   0.91353   0.00000  Uiso   1.00
H111   H     0.26999   0.69522   0.98645   0.00000  Uiso   1.00
N112   N     0.44604   0.80165  -0.00805   0.00000  Uiso   1.00
N113   N     0.27707   0.75527   0.94842   0.00000  Uiso   1.00
H114   H     0.28489   0.68367   0.94620   0.00000  Uiso   1.00
H115   H     0.53639   0.87709  -0.00080   0.00000  Uiso   1.00
H116   H     0.55126   0.78339   0.04913   0.00000  Uiso   1.00
H117   H     0.48412   0.89119  -0.02976   0.00000  Uiso   1.00
H118   H     0.46315   0.85400   0.94734   0.00000  Uiso   1.00
H119   H     0.44843   0.87291  -0.01432   0.00000  Uiso   1.00
H120   H     0.48214   0.73796   1.00499   0.00000  Uiso   1.00
H121   H     0.51003   0.73994   0.04393   0.00000  Uiso   1.00
H122   H     0.46830   0.75751   0.04352   0.00000  Uiso   1.00
O123   O     0.43527   0.82190   0.04715   0.00000  Uiso   1.00
O124   O     0.45838   0.78144   0.93731   0.00000  Uiso   1.00
H125   H     0.40684   0.76023   0.89874   0.00000  Uiso   1.00
H126   H     0.37507   0.81335   0.05664   0.00000  Uiso   1.00
H127   H     0.34771   0.74515   0.88324   0.00000  Uiso   1.00
H128   H     0.20390   0.81732   0.93334   0.00000  Uiso   1.00
H129   H     0.24836   0.81090   0.93376   0.00000  Uiso   1.00
H130   H     0.16694   0.76554   0.89932   0.00000  Uiso   1.00
H131   H     0.31623   0.79689   0.04160   0.00000  Uiso   1.00
H132   H     0.25313   0.65778   0.96040   0.00000  Uiso   1.00
O133   O     0.26523   0.77270   0.00387   0.00000  Uiso   1.00
O134   O     0.28728   0.73753   0.89247   0.00000  Uiso   1.00
H135   H     0.22131   0.80631   0.89435   0.00000  Uiso   1.00
H136   H     0.54276   0.89212   0.17699   0.00000  Uiso   1.00
C137   C     0.42282   0.25110   0.32504   0.00000  Uiso   1.00
C138   C     0.44282   0.25268   0.29891   0.00000  Uiso   1.00
C139   C     0.45400   0.22210   0.28239   0.00000  Uiso   1.00
C140   C     0.44530   0.18962   0.29257   0.00000  Uiso   1.00
C141   C     0.42507   0.18813   0.31889   0.00000  Uiso   1.00
C142   C     0.41392   0.21895   0.33481   0.00000  Uiso   1.00
C143   C     0.47517   0.22413   0.25408   0.00000  Uiso   1.00
C144   C     0.41561   0.15386   0.33023   0.00000  Uiso   1.00
C145   C     0.48774   0.14484   0.28897   0.00000  Uiso   1.00
C146   C     0.50027   0.11442   0.27341   0.00000  Uiso   1.00
C147   C     0.48111   0.09775   0.24482   0.00000  Uiso   1.00
C148   C     0.44978   0.11153   0.23245   0.00000  Uiso   1.00
C149   C     0.43831   0.14207   0.24880   0.00000  Uiso   1.00
C150   C     0.53150   0.10046   0.28553   0.00000  Uiso   1.00
C151   C     0.54375   0.07056   0.26926   0.00000  Uiso   1.00
C152   C     0.52501   0.05391   0.24054   0.00000  Uiso   1.00
C153   C     0.49346   0.06741   0.22841   0.00000  Uiso   1.00
C154   C     0.47442   0.05085   0.19969   0.00000  Uiso   1.00
C155   C     0.44299   0.06459   0.18780   0.00000  Uiso   1.00
C156   C     0.43083   0.09461   0.20399   0.00000  Uiso   1.00
C157   C     0.53721   0.02430   0.22327   0.00000  Uiso   1.00
C158   C     0.48759   0.02116   0.18334   0.00000  Uiso   1.00
C159   C     0.53280   0.97985   0.17665   0.00000  Uiso   1.00
C160   C     0.55705   0.02119   0.13918   0.00000  Uiso   1.00
C161   C     0.56664   0.95751   0.13339   0.00000  Uiso   1.00
C162   C     0.50891   0.93919   0.21402   0.00000  Uiso   1.00
C163   C     0.54483   0.91801   0.16911   0.00000  Uiso   1.00
C164   C     0.52909   0.94580   0.18591   0.00000  Uiso   1.00
C165   C     0.55161   0.98557   0.15005   0.00000  Uiso   1.00
C166   C     0.56398   0.92364   0.14296   0.00000  Uiso   1.00
H167   H     0.48273   0.94853   0.20798   0.00000  Uiso   1.00
N168   N     0.45737   0.15812   0.27643   0.00000  Uiso   1.00
N169   N     0.51861   0.00876   0.19512   0.00000  Uiso   1.00
H170   H     0.52045   0.95314   0.23793   0.00000  Uiso   1.00
H171   H     0.44971   0.27769   0.29150   0.00000  Uiso   1.00
H172   H     0.39853   0.21801   0.35516   0.00000  Uiso   1.00
H173   H     0.47945   0.25136   0.24890   0.00000  Uiso   1.00
H174   H     0.50004   0.21196   0.26073   0.00000  Uiso   1.00
H175   H     0.46230   0.21028   0.23070   0.00000  Uiso   1.00
H176   H     0.43870   0.13985   0.33965   0.00000  Uiso   1.00
H177   H     0.39940   0.15723   0.35086   0.00000  Uiso   1.00
H178   H     0.40156   0.13795   0.30880   0.00000  Uiso   1.00
O179   O     0.40798   0.15605   0.23689   0.00000  Uiso   1.00
O180   O     0.50615   0.16148   0.31678   0.00000  Uiso   1.00
H181   H     0.54668   0.11269   0.30751   0.00000  Uiso   1.00
H182   H     0.40661   0.10460   0.19403   0.00000  Uiso   1.00
H183   H     0.56802   0.06066   0.27917   0.00000  Uiso   1.00
H184   H     0.54660   0.02210   0.11231   0.00000  Uiso   1.00
H185   H     0.54497   0.04195   0.15419   0.00000  Uiso   1.00
H186   H     0.58136   0.96256   0.11338   0.00000  Uiso   1.00
H187   H     0.42779   0.05236   0.16584   0.00000  Uiso   1.00
H188   H     0.50785   0.91118   0.21785   0.00000  Uiso   1.00
O189   O     0.46965   0.00502   0.15501   0.00000  Uiso   1.00
O190   O     0.56828   0.01133   0.23429   0.00000  Uiso   1.00
H191   H     0.58448   0.02682   0.14186   0.00000  Uiso   1.00
H192   H     0.45965   0.32369   0.42814   0.00000  Uiso   1.00
C193   C     0.79762   0.19870   0.57671   0.00000  Uiso   1.00
C194   C     0.79078   0.22880   0.59645   0.00000  Uiso   1.00
C195   C     0.76267   0.24920   0.58675   0.00000  Uiso   1.00
C196   C     0.74200   0.23986   0.55618   0.00000  Uiso   1.00
C197   C     0.75139   0.21184   0.53441   0.00000  Uiso   1.00
C198   C     0.77874   0.19102   0.54524   0.00000  Uiso   1.00
C199   C     0.75334   0.27904   0.61027   0.00000  Uiso   1.00
C200   C     0.73113   0.20281   0.50066   0.00000  Uiso   1.00
C201   C     0.70375   0.28524   0.53631   0.00000  Uiso   1.00
C202   C     0.67104   0.29885   0.53015   0.00000  Uiso   1.00
C203   C     0.64355   0.27995   0.53822   0.00000  Uiso   1.00
C204   C     0.64915   0.24832   0.55284   0.00000  Uiso   1.00
C205   C     0.68224   0.23611   0.55909   0.00000  Uiso   1.00
C206   C     0.66508   0.33056   0.51584   0.00000  Uiso   1.00
C207   C     0.63228   0.34312   0.50930   0.00000  Uiso   1.00
C208   C     0.60469   0.32416   0.51676   0.00000  Uiso   1.00
C209   C     0.61033   0.29250   0.53133   0.00000  Uiso   1.00
C210   C     0.58280   0.27306   0.53851   0.00000  Uiso   1.00
C211   C     0.58878   0.24162   0.55327   0.00000  Uiso   1.00
C212   C     0.62160   0.22948   0.56053   0.00000  Uiso   1.00
C213   C     0.57142   0.33562   0.50923   0.00000  Uiso   1.00
C214   C     0.54993   0.28526   0.52997   0.00000  Uiso   1.00
C215   C     0.51125   0.32586   0.50258   0.00000  Uiso   1.00
C216   C     0.50301   0.35775   0.55939   0.00000  Uiso   1.00
C217   C     0.46215   0.36258   0.50759   0.00000  Uiso   1.00
C218   C     0.51764   0.29078   0.44740   0.00000  Uiso   1.00
C219   C     0.46873   0.33054   0.45440   0.00000  Uiso   1.00
C220   C     0.49877   0.31613   0.46865   0.00000  Uiso   1.00
C221   C     0.49212   0.34827   0.52252   0.00000  Uiso   1.00
C222   C     0.45083   0.35442   0.47337   0.00000  Uiso   1.00
H223   H     0.51788   0.26504   0.45765   0.00000  Uiso   1.00
N224   N     0.70867   0.25428   0.55032   0.00000  Uiso   1.00
N225   N     0.54487   0.31578   0.51518   0.00000  Uiso   1.00
H226   H     0.54393   0.29967   0.44740   0.00000  Uiso   1.00
H227   H     0.80527   0.23437   0.62097   0.00000  Uiso   1.00
H228   H     0.78420   0.16768   0.53004   0.00000  Uiso   1.00
H229   H     0.77128   0.28195   0.63379   0.00000  Uiso   1.00
H230   H     0.75359   0.30347   0.59769   0.00000  Uiso   1.00
H231   H     0.72780   0.27483   0.61736   0.00000  Uiso   1.00
H232   H     0.73068   0.22535   0.48523   0.00000  Uiso   1.00
H233   H     0.74213   0.18049   0.48657   0.00000  Uiso   1.00
H234   H     0.70493   0.19592   0.50394   0.00000  Uiso   1.00
O235   O     0.68810   0.20550   0.57378   0.00000  Uiso   1.00
O236   O     0.73076   0.30289   0.52799   0.00000  Uiso   1.00
H237   H     0.68571   0.34568   0.50948   0.00000  Uiso   1.00
H238   H     0.62529   0.20507   0.57180   0.00000  Uiso   1.00
H239   H     0.62860   0.36749   0.49798   0.00000  Uiso   1.00
H240   H     0.48256   0.35120   0.57418   0.00000  Uiso   1.00
H241   H     0.52591   0.34367   0.56904   0.00000  Uiso   1.00
H242   H     0.44818   0.38085   0.52247   0.00000  Uiso   1.00
H243   H     0.56813   0.22616   0.55907   0.00000  Uiso   1.00
H244   H     0.50574   0.28776   0.42082   0.00000  Uiso   1.00
O245   O     0.52277   0.26607   0.53560   0.00000  Uiso   1.00
O246   O     0.56544   0.36619   0.49451   0.00000  Uiso   1.00
H247   H     0.50816   0.38597   0.56378   0.00000  Uiso   1.00
H248   H     0.64431   0.88813   0.96512   0.00000  Uiso   1.00
C249   C     0.79601   0.07966   0.69851   0.00000  Uiso   1.00
C250   C     0.78408   0.10202   0.72365   0.00000  Uiso   1.00
C251   C     0.77050   0.08897   0.75065   0.00000  Uiso   1.00
C252   C     0.76771   0.05277   0.75197   0.00000  Uiso   1.00
C253   C     0.77858   0.03009   0.72595   0.00000  Uiso   1.00
C254   C     0.79324   0.04377   0.69978   0.00000  Uiso   1.00
C255   C     0.76005   0.11376   0.77841   0.00000  Uiso   1.00
C256   C     0.77460   0.99147   0.72598   0.00000  Uiso   1.00
C257   C     0.72150   0.03941   0.78301   0.00000  Uiso   1.00
C258   C     0.70925   0.02791   0.81160   0.00000  Uiso   1.00
C259   C     0.73215   0.01484   0.83703   0.00000  Uiso   1.00
C260   C     0.76680   0.01403   0.83380   0.00000  Uiso   1.00
C261   C     0.77800   0.02702   0.80541   0.00000  Uiso   1.00
C262   C     0.67480   0.02926   0.81544   0.00000  Uiso   1.00
C263   C     0.66327   0.01785   0.84418   0.00000  Uiso   1.00
C264   C     0.68585   1.00429   0.86948   0.00000  Uiso   1.00
C265   C     0.72038   1.00256   0.86575   0.00000  Uiso   1.00
C266   C     0.74315   0.98843   0.89062   0.00000  Uiso   1.00
C267   C     0.77765   0.98750   0.88699   0.00000  Uiso   1.00
C268   C     0.78938   1.00043   0.85905   0.00000  Uiso   1.00
C269   C     0.67476   0.99200   0.89829   0.00000  Uiso   1.00
C270   C     0.73072   0.97521   0.91830   0.00000  Uiso   1.00
C271   C     0.68467   0.96128   0.94916   0.00000  Uiso   1.00
C272   C     0.70711   0.01195   0.99078   0.00000  Uiso   1.00
C273   C     0.68084   0.95965   1.00936   0.00000  Uiso   1.00
C274   C     0.66253   0.91071   0.90804   0.00000  Uiso   1.00
C275   C     0.65711   0.91296   0.96992   0.00000  Uiso   1.00
C276   C     0.66793   0.92892   0.94300   0.00000  Uiso   1.00
C277   C     0.69063   0.97694   0.98263   0.00000  Uiso   1.00
C278   C     0.66391   0.92786   1.00312   0.00000  Uiso   1.00
H279   H     0.68700   0.90747   0.89776   0.00000  Uiso   1.00
N280   N     0.75538   0.03912   0.78058   0.00000  Uiso   1.00
N281   N     0.69702   0.97702   0.92162   0.00000  Uiso   1.00
H282   H     0.64527   0.92593   0.89114   0.00000  Uiso   1.00
H283   H     0.78664   0.12977   0.72292   0.00000  Uiso   1.00
H284   H     0.80260   0.02646   0.68039   0.00000  Uiso   1.00
H285   H     0.76639   0.14098   0.77486   0.00000  Uiso   1.00
H286   H     0.73244   0.11210   0.77880   0.00000  Uiso   1.00
H287   H     0.77322   0.10728   0.80310   0.00000  Uiso   1.00
H288   H     0.74765   0.98496   0.72623   0.00000  Uiso   1.00
H289   H     0.78325   0.97753   0.70327   0.00000  Uiso   1.00
H290   H     0.78956   0.98198   0.74853   0.00000  Uiso   1.00
O291   O     0.81186   0.02780   0.80266   0.00000  Uiso   1.00
O292   O     0.69941   0.05119   0.75750   0.00000  Uiso   1.00
H293   H     0.65668   0.03935   0.79635   0.00000  Uiso   1.00
H294   H     0.81614   0.99948   0.85717   0.00000  Uiso   1.00
H295   H     0.63657   0.01935   0.84632   0.00000  Uiso   1.00
H296   H     0.73107   0.00943   1.00756   0.00000  Uiso   1.00
H297   H     0.71264   0.02412   0.96800   0.00000  Uiso   1.00
H298   H     0.68591   0.97130   0.03502   0.00000  Uiso   1.00
H299   H     0.79574   0.97688   0.90577   0.00000  Uiso   1.00
H300   H     0.65122   0.88461   0.90798   0.00000  Uiso   1.00
O301   O     0.75244   0.95995   0.94193   0.00000  Uiso   1.00
O302   O     0.64133   0.99449   0.90279   0.00000  Uiso   1.00
H303   H     0.69010   0.02963   1.00397   0.00000  Uiso   1.00
H304   H     0.69876   0.84865   0.20499   0.00000  Uiso   1.00
C305   C     0.81930   0.08699   0.51682   0.00000  Uiso   1.00
C306   C     0.81298   0.10462   0.48753   0.00000  Uiso   1.00
C307   C     0.79849   0.08753   0.45709   0.00000  Uiso   1.00
C308   C     0.79088   0.05190   0.45568   0.00000  Uiso   1.00
C309   C     0.79677   0.03409   0.48519   0.00000  Uiso   1.00
C310   C     0.81058   0.05194   0.51569   0.00000  Uiso   1.00
C311   C     0.79138   0.10729   0.42621   0.00000  Uiso   1.00
C312   C     0.78922   0.99600   0.48399   0.00000  Uiso   1.00
C313   C     0.80101   0.02316   0.40183   0.00000  Uiso   1.00
C314   C     0.78954   0.00783   0.36951   0.00000  Uiso   1.00
C315   C     0.75474   1.00229   0.36048   0.00000  Uiso   1.00
C316   C     0.73205   1.01208   0.38378   0.00000  Uiso   1.00
C317   C     0.74463   0.02819   0.41552   0.00000  Uiso   1.00
C318   C     0.81192  -0.00176   0.34598   0.00000  Uiso   1.00
C319   C     0.79989   0.98353   0.31378   0.00000  Uiso   1.00
C320   C     0.76525   0.97758   0.30460   0.00000  Uiso   1.00
C321   C     0.74262   0.98682   0.32811   0.00000  Uiso   1.00
C322   C     0.70792   0.98040   0.31941   0.00000  Uiso   1.00
C323   C     0.68552   0.98998   0.34293   0.00000  Uiso   1.00
C324   C     0.69745   1.00578   0.37472   0.00000  Uiso   1.00
C325   C     0.75263   0.96192   0.27270   0.00000  Uiso   1.00
C326   C     0.69659   0.96384   0.28758   0.00000  Uiso   1.00
C327   C     0.70714   0.93377   0.23454   0.00000  Uiso   1.00
C328   C     0.68135   0.98694   0.20761   0.00000  Uiso   1.00
C329   C     0.67073   0.92690   0.18102   0.00000  Uiso   1.00
C330   C     0.73210   0.88076   0.26160   0.00000  Uiso   1.00
C331   C     0.69626   0.87659   0.20559   0.00000  Uiso   1.00
C332   C     0.71207   0.89752   0.23301   0.00000  Uiso   1.00
C333   C     0.68708   0.94856   0.20776   0.00000  Uiso   1.00
C334   C     0.67502   0.89107   0.18020   0.00000  Uiso   1.00
H335   H     0.72136   0.88799   0.28546   0.00000  Uiso   1.00
N336   N     0.77854   0.03359   0.42381   0.00000  Uiso   1.00
N337   N     0.71898   0.95452   0.26516   0.00000  Uiso   1.00
H338   H     0.75874   0.88933   0.26424   0.00000  Uiso   1.00
H339   H     0.81952   0.13182   0.48842   0.00000  Uiso   1.00
H340   H     0.81584   0.03824   0.53823   0.00000  Uiso   1.00
H341   H     0.79830   0.13509   0.43170   0.00000  Uiso   1.00
H342   H     0.80606   0.09622   0.40614   0.00000  Uiso   1.00
H343   H     0.76410   0.10565   0.41679   0.00000  Uiso   1.00
H344   H     0.80356   0.98159   0.46531   0.00000  Uiso   1.00
H345   H     0.79632   0.98563   0.50888   0.00000  Uiso   1.00
H346   H     0.76188   0.99142   0.47651   0.00000  Uiso   1.00
O347   O     0.72279   0.03901   0.43810   0.00000  Uiso   1.00
O348   O     0.83491   0.02826   0.41123   0.00000  Uiso   1.00
H349   H     0.83879   0.00222   0.35230   0.00000  Uiso   1.00
H350   H     0.67949   1.01283   0.39221   0.00000  Uiso   1.00
H351   H     0.81785   0.97649   0.29626   0.00000  Uiso   1.00
H352   H     0.65435   0.99260   0.20944   0.00000  Uiso   1.00
H353   H     0.69688   1.00187   0.22871   0.00000  Uiso   1.00
H354   H     0.65370   0.93786   0.16151   0.00000  Uiso   1.00
H355   H     0.65871   0.98527   0.33686   0.00000  Uiso   1.00
H356   H     0.73167   0.85206   0.25727   0.00000  Uiso   1.00
O357   O     0.66301   0.95604   0.27928   0.00000  Uiso   1.00
O358   O     0.77423   0.95311   0.24931   0.00000  Uiso   1.00
H359   H     0.68804   0.99582   0.18364   0.00000  Uiso   1.00
H360   H     0.14557   0.61710   0.77261   0.00000  Uiso   1.00
C361   C     0.34594   0.46830   0.50351   0.00000  Uiso   1.00
C362   C     0.36418   0.46233   0.53471   0.00000  Uiso   1.00
C363   C     0.35212   0.47376   0.56504   0.00000  Uiso   1.00
C364   C     0.32178   0.49254   0.56431   0.00000  Uiso   1.00
C365   C     0.30436   0.50059   0.53309   0.00000  Uiso   1.00
C366   C     0.31643   0.48810   0.50286   0.00000  Uiso   1.00
C367   C     0.37074   0.46428   0.59797   0.00000  Uiso   1.00
C368   C     0.27249   0.52154   0.53204   0.00000  Uiso   1.00
C369   C     0.31861   0.53129   0.61466   0.00000  Uiso   1.00
C370   C     0.30537   0.54059   0.64502   0.00000  Uiso   1.00
C371   C     0.28044   0.51944   0.65489   0.00000  Uiso   1.00
C372   C     0.26974   0.48905   0.63478   0.00000  Uiso   1.00
C373   C     0.28402   0.48057   0.60485   0.00000  Uiso   1.00
C374   C     0.31617   0.57060   0.66552   0.00000  Uiso   1.00
C375   C     0.30180   0.57998   0.69499   0.00000  Uiso   1.00
C376   C     0.27613   0.55969   0.70448   0.00000  Uiso   1.00
C377   C     0.26572   0.52906   0.68460   0.00000  Uiso   1.00
C378   C     0.24008   0.50847   0.69393   0.00000  Uiso   1.00
C379   C     0.23015   0.47778   0.67410   0.00000  Uiso   1.00
C380   C     0.24486   0.46814   0.64487   0.00000  Uiso   1.00
C381   C     0.25972   0.56984   0.73274   0.00000  Uiso   1.00
C382   C     0.22424   0.51979   0.72229   0.00000  Uiso   1.00
C383   C     0.21340   0.56455   0.76566   0.00000  Uiso   1.00
C384   C     0.24990   0.53459   0.81139   0.00000  Uiso   1.00
C385   C     0.20118   0.57237   0.82389   0.00000  Uiso   1.00
C386   C     0.17732   0.59382   0.71977   0.00000  Uiso   1.00
C387   C     0.16663   0.60068   0.78041   0.00000  Uiso   1.00
C388   C     0.18592   0.58608   0.75604   0.00000  Uiso   1.00
C389   C     0.22095   0.55749   0.79980   0.00000  Uiso   1.00
C390   C     0.17420   0.59438   0.81452   0.00000  Uiso   1.00
H391   H     0.17212   0.56934   0.70357   0.00000  Uiso   1.00
N392   N     0.30773   0.50181   0.59525   0.00000  Uiso   1.00
N393   N     0.23359   0.55050   0.74040   0.00000  Uiso   1.00
H394   H     0.19872   0.60744   0.71136   0.00000  Uiso   1.00
H395   H     0.38695   0.44694   0.53547   0.00000  Uiso   1.00
H396   H     0.30223   0.49282   0.47888   0.00000  Uiso   1.00
H397   H     0.39383   0.44910   0.59416   0.00000  Uiso   1.00
H398   H     0.37835   0.48809   0.61440   0.00000  Uiso   1.00
H399   H     0.35422   0.44833   0.61094   0.00000  Uiso   1.00
H400   H     0.27760   0.54683   0.54696   0.00000  Uiso   1.00
H401   H     0.26245   0.52666   0.50584   0.00000  Uiso   1.00
H402   H     0.25297   0.50737   0.54293   0.00000  Uiso   1.00
O403   O     0.27395   0.45097   0.58500   0.00000  Uiso   1.00
O404   O     0.34237   0.55200   0.60427   0.00000  Uiso   1.00
H405   H     0.33554   0.58711   0.65869   0.00000  Uiso   1.00
H406   H     0.23633   0.44452   0.62998   0.00000  Uiso   1.00
H407   H     0.31046   0.60349   0.70997   0.00000  Uiso   1.00
H408   H     0.24040   0.51258   0.82361   0.00000  Uiso   1.00
H409   H     0.26346   0.52377   0.79038   0.00000  Uiso   1.00
H410   H     0.20717   0.56698   0.85004   0.00000  Uiso   1.00
H411   H     0.21068   0.46135   0.68083   0.00000  Uiso   1.00
H412   H     0.15470   0.61053   0.71623   0.00000  Uiso   1.00
O413   O     0.19822   0.50083   0.73092   0.00000  Uiso   1.00
O414   O     0.26882   0.60018   0.75180   0.00000  Uiso   1.00
H415   H     0.26820   0.54975   0.82991   0.00000  Uiso   1.00
H416   H     0.30980   0.36191   0.29461   0.00000  Uiso   1.00
C417   C     0.17729   0.56609   0.99481   0.00000  Uiso   1.00
C418   C     0.20229   0.58394   1.01713   0.00000  Uiso   1.00
C419   C     0.21716   0.56932   0.04612   0.00000  Uiso   1.00
C420   C     0.20762   0.53574   0.05244   0.00000  Uiso   1.00
C421   C     0.18334   0.51703   0.02946   0.00000  Uiso   1.00
C422   C     0.16810   0.53251   1.00091   0.00000  Uiso   1.00
C423   C     0.24227   0.59003   0.07082   0.00000  Uiso   1.00
C424   C     0.17354   0.48087   0.03560   0.00000  Uiso   1.00
C425   C     0.20482   0.52363   0.11040   0.00000  Uiso   1.00
C426   C     0.21896   0.51086   0.14075   0.00000  Uiso   1.00
C427   C     0.25124   0.49587   0.14246   0.00000  Uiso   1.00
C428   C     0.26872   0.49367   0.11392   0.00000  Uiso   1.00
C429   C     0.25333   0.50632   0.08398   0.00000  Uiso   1.00
C430   C     0.20175   0.51289   0.16937   0.00000  Uiso   1.00
C431   C     0.21631   0.49995   0.19924   0.00000  Uiso   1.00
C432   C     0.24845   0.48489   0.20120   0.00000  Uiso   1.00
C433   C     0.26608   0.48303   0.17277   0.00000  Uiso   1.00
C434   C     0.29843   0.46817   0.17452   0.00000  Uiso   1.00
C435   C     0.31579   0.46646   0.14603   0.00000  Uiso   1.00
C436   C     0.30108   0.47907   0.11604   0.00000  Uiso   1.00
C437   C     0.26336   0.47123   0.23079   0.00000  Uiso   1.00
C438   C     0.31239   0.45503   0.20472   0.00000  Uiso   1.00
C439   C     0.30832   0.44034   0.26158   0.00000  Uiso   1.00
C440   C     0.34059   0.49573   0.28458   0.00000  Uiso   1.00
C441   C     0.34563   0.44146   0.31441   0.00000  Uiso   1.00
C442   C     0.27802   0.38492   0.23709   0.00000  Uiso   1.00
C443   C     0.31487   0.38909   0.29270   0.00000  Uiso   1.00
C444   C     0.30038   0.40539   0.26462   0.00000  Uiso   1.00
C445   C     0.33085   0.45861   0.28685   0.00000  Uiso   1.00
C446   C     0.33772   0.40681   0.31723   0.00000  Uiso   1.00
H447   H     0.28936   0.38432   0.21312   0.00000  Uiso   1.00
N448   N     0.22206   0.52112   0.08281   0.00000  Uiso   1.00
N449   N     0.29461   0.45643   0.23189   0.00000  Uiso   1.00
H450   H     0.25276   0.39706   0.23356   0.00000  Uiso   1.00
H451   H     0.20935   0.60992   1.01259   0.00000  Uiso   1.00
H452   H     0.14904   0.51844   0.98355   0.00000  Uiso   1.00
H453   H     0.24615   0.61632   0.06281   0.00000  Uiso   1.00
H454   H     0.23308   0.59297   0.09593   0.00000  Uiso   1.00
H455   H     0.26695   0.57663   0.07309   0.00000  Uiso   1.00
H456   H     0.16237   0.48126   0.05963   0.00000  Uiso   1.00
H457   H     0.15478   0.46936   1.01504   0.00000  Uiso   1.00
H458   H     0.19618   0.46404   0.03722   0.00000  Uiso   1.00
O459   O     0.26990   0.50423   0.05586   0.00000  Uiso   1.00
O460   O     0.17368   0.53901   0.10848   0.00000  Uiso   1.00
H461   H     0.17696   0.52439   0.16877   0.00000  Uiso   1.00
H462   H     0.31515   0.47732   0.09456   0.00000  Uiso   1.00
H463   H     0.20228   0.50172   0.22076   0.00000  Uiso   1.00
H464   H     0.36812   0.49742   0.28349   0.00000  Uiso   1.00
H465   H     0.32741   0.50692   0.26202   0.00000  Uiso   1.00
H466   H     0.36400   0.45481   0.33313   0.00000  Uiso   1.00
H467   H     0.34072   0.45525   0.14675   0.00000  Uiso   1.00
H468   H     0.27481   0.35775   0.24307   0.00000  Uiso   1.00
O469   O     0.34370   0.44001   0.20680   0.00000  Uiso   1.00
O470   O     0.24629   0.47209   0.25853   0.00000  Uiso   1.00
H471   H     0.33426   0.51175   0.30721   0.00000  Uiso   1.00
H472   H     0.98473   0.14607   0.51671   0.00000  Uiso   1.00
C473   C     0.31359   0.30793   0.44853   0.00000  Uiso   1.00
C474   C     0.29164   0.32654   0.46824   0.00000  Uiso   1.00
C475   C     0.26349   0.31079   0.47789   0.00000  Uiso   1.00
C476   C     0.25735   0.27530   0.46858   0.00000  Uiso   1.00
C477   C     0.28058   0.25562   0.45107   0.00000  Uiso   1.00
C478   C     0.30848   0.27218   0.44099   0.00000  Uiso   1.00
C479   C     0.23918   0.33252   0.49658   0.00000  Uiso   1.00
C480   C     0.27519   0.21736   0.44236   0.00000  Uiso   1.00
C481   C     0.20001   0.25937   0.44705   0.00000  Uiso   1.00
C482   C     0.16684   0.25214   0.45235   0.00000  Uiso   1.00
C483   C     0.16009   0.24665   0.48513   0.00000  Uiso   1.00
C484   C     0.18671   0.24685   0.51169   0.00000  Uiso   1.00
C485   C     0.21963   0.25344   0.50501   0.00000  Uiso   1.00
C486   C     0.14019   0.25153   0.42596   0.00000  Uiso   1.00
C487   C     0.10712   0.24607   0.43217   0.00000  Uiso   1.00
C488   C     0.09999   0.24126   0.46491   0.00000  Uiso   1.00
C489   C     0.12660   0.24149   0.49148   0.00000  Uiso   1.00
C490   C     0.11978   0.23675   0.52441   0.00000  Uiso   1.00
C491   C     0.14652   0.23675   0.55067   0.00000  Uiso   1.00
C492   C     0.17964   0.24165   0.54436   0.00000  Uiso   1.00
C493   C     0.06693   0.23572   0.47180   0.00000  Uiso   1.00
C494   C     0.08632   0.23162   0.53012   0.00000  Uiso   1.00
C495   C     0.02774   0.22011   0.50973   0.00000  Uiso   1.00
C496   C     0.01089   0.28299   0.52328   0.00000  Uiso   1.00
C497   C     0.97425   0.23304   0.53120   0.00000  Uiso   1.00
C498   C     0.04443   0.15793   0.49525   0.00000  Uiso   1.00
C499   C    -0.01007   0.17357   0.51749   0.00000  Uiso   1.00
C500   C     0.01995   0.18448   0.50721   0.00000  Uiso   1.00
C501   C     0.00425   0.24463   0.52085   0.00000  Uiso   1.00
C502   C     0.96759   0.19752   0.53068   0.00000  Uiso   1.00
H503   H     0.06817   0.15930   0.51285   0.00000  Uiso   1.00
N504   N     0.22543   0.26078   0.47340   0.00000  Uiso   1.00
N505   N     0.06083   0.23056   0.50387   0.00000  Uiso   1.00
H506   H     0.04998   0.16298   0.46965   0.00000  Uiso   1.00
H507   H     0.29535   0.35405   0.47483   0.00000  Uiso   1.00
H508   H     0.32544   0.25746   0.42625   0.00000  Uiso   1.00
H509   H     0.24577   0.36048   0.49872   0.00000  Uiso   1.00
H510   H     0.21323   0.32962   0.48320   0.00000  Uiso   1.00
H511   H     0.23955   0.32436   0.52248   0.00000  Uiso   1.00
H512   H     0.25089   0.21254   0.42612   0.00000  Uiso   1.00
H513   H     0.29554   0.20574   0.42862   0.00000  Uiso   1.00
H514   H     0.27482   0.20413   0.46583   0.00000  Uiso   1.00
O515   O     0.24579   0.25443   0.53068   0.00000  Uiso   1.00
O516   O     0.20665   0.26699   0.41567   0.00000  Uiso   1.00
H517   H     0.14476   0.25551   0.40049   0.00000  Uiso   1.00
H518   H     0.19962   0.24180   0.56522   0.00000  Uiso   1.00
H519   H     0.08719   0.24580   0.41126   0.00000  Uiso   1.00
H520   H     0.01232   0.29359   0.55001   0.00000  Uiso   1.00
H521   H     0.03472   0.28936   0.51363   0.00000  Uiso   1.00
H522   H     0.95692   0.25172   0.54113   0.00000  Uiso   1.00
H523   H     0.14198   0.23300   0.57620   0.00000  Uiso   1.00
H524   H     0.03420   0.13122   0.49400   0.00000  Uiso   1.00
O525   O     0.07926   0.22642   0.56199   0.00000  Uiso   1.00
O526   O     0.04076   0.23452   0.44614   0.00000  Uiso   1.00
H527   H    -0.01000   0.29592   0.50825   0.00000  Uiso   1.00
H528   H     0.08767   0.78004   0.83713   0.00000  Uiso   1.00
C529   C     0.93532   0.07571   0.63676   0.00000  Uiso   1.00
C530   C     0.92336   0.04278   0.62385   0.00000  Uiso   1.00
C531   C     0.93490   0.01304   0.63923   0.00000  Uiso   1.00
C532   C     0.95820   0.01631   0.66875   0.00000  Uiso   1.00
C533   C     0.97016   0.04952   0.68214   0.00000  Uiso   1.00
C534   C     0.95897   0.07898   0.66569   0.00000  Uiso   1.00
C535   C     0.92256   0.97791   0.62385   0.00000  Uiso   1.00
C536   C     0.99432   0.05362   0.71409   0.00000  Uiso   1.00
C537   C     0.99965   0.97076   0.67655   0.00000  Uiso   1.00
C538   C     1.01081   0.93961   0.68976   0.00000  Uiso   1.00
C539   C     0.99116   0.92380   0.71108   0.00000  Uiso   1.00
C540   C     0.96096   0.93947   0.71914   0.00000  Uiso   1.00
C541   C     0.95097   0.97083   0.70559   0.00000  Uiso   1.00
C542   C     0.04091   0.92380   0.68192   0.00000  Uiso   1.00
C543   C     0.05140   0.89270   0.69511   0.00000  Uiso   1.00
C544   C     0.03195   0.87661   0.71630   0.00000  Uiso   1.00
C545   C     1.00169   0.89219   0.72428   0.00000  Uiso   1.00
C546   C     0.98203   0.87631   0.74555   0.00000  Uiso   1.00
C547   C     0.95188   0.89209   0.75333   0.00000  Uiso   1.00
C548   C     0.94145   0.92329   0.74024   0.00000  Uiso   1.00
C549   C     0.04218   0.84547   0.73010   0.00000  Uiso   1.00
C550   C     0.99332   0.84519   0.75882   0.00000  Uiso   1.00
C551   C     0.03573   0.80061   0.76766   0.00000  Uiso   1.00
C552   C     0.00263   0.76003   0.72192   0.00000  Uiso   1.00
C553   C     0.03757   0.73809   0.77180   0.00000  Uiso   1.00
C554   C     0.06852   0.84100   0.81290   0.00000  Uiso   1.00
C555   C     0.07047   0.77631   0.81402   0.00000  Uiso   1.00
C556   C     0.05815   0.80523   0.79774   0.00000  Uiso   1.00
C557   C     0.02568   0.76670   0.75440   0.00000  Uiso   1.00
C558   C     0.06004   0.74274   0.80152   0.00000  Uiso   1.00
H559   H     0.04587   0.85614   0.81833   0.00000  Uiso   1.00
N560   N     0.97018   0.98565   0.68453   0.00000  Uiso   1.00
N561   N     0.02307   0.83063   0.75120   0.00000  Uiso   1.00
H562   H     0.08197   0.85446   0.79510   0.00000  Uiso   1.00
H563   H     0.90528   0.04021   0.60131   0.00000  Uiso   1.00
H564   H     0.96805   0.10449   0.67579   0.00000  Uiso   1.00
H565   H     0.90528   0.97979   0.60017   0.00000  Uiso   1.00
H566   H     0.94427   0.96156   0.61781   0.00000  Uiso   1.00
H567   H     0.90875   0.96506   0.64178   0.00000  Uiso   1.00
H568   H     1.01803   0.03952   0.71049   0.00000  Uiso   1.00
H569   H     1.00068   0.08126   0.72167   0.00000  Uiso   1.00
H570   H     0.98281   0.04293   0.73489   0.00000  Uiso   1.00
O571   O     0.92151   0.98635   0.71302   0.00000  Uiso   1.00
O572   O     1.01809  -0.01400   0.65504   0.00000  Uiso   1.00
H573   H     0.05648   0.93540   0.66559   0.00000  Uiso   1.00
H574   H     0.91803   0.93465   0.74670   0.00000  Uiso   1.00
H575   H     0.07483   0.88136   0.68867   0.00000  Uiso   1.00
H576   H    -0.02040   0.74645   0.72677   0.00000  Uiso   1.00
H577   H    -0.00513   0.78414   0.71006   0.00000  Uiso   1.00
H578   H     0.02968   0.71216   0.76183   0.00000  Uiso   1.00
H579   H     0.93627   0.88042   0.76959   0.00000  Uiso   1.00
H580   H     0.08554   0.84018   0.83689   0.00000  Uiso   1.00
O581   O     0.97485   0.82978   0.78019   0.00000  Uiso   1.00
O582   O     0.07189   0.83027   0.72302   0.00000  Uiso   1.00
H583   H     0.01568   0.74336   0.70371   0.00000  Uiso   1.00
H584   H     0.97091   0.20794   0.67277   0.00000  Uiso   1.00
C585   C     0.06952   0.55679   0.84205   0.00000  Uiso   1.00
C586   C     0.03543   0.55339   0.84597   0.00000  Uiso   1.00
C587   C     0.01685   0.52440   0.83073   0.00000  Uiso   1.00
C588   C     0.03261   0.49895   0.81072   0.00000  Uiso   1.00
C589   C     0.06599   0.50428   0.80410   0.00000  Uiso   1.00
C590   C     0.08426   0.53297   0.82016   0.00000  Uiso   1.00
C591   C    -0.01897   0.51976   0.83743   0.00000  Uiso   1.00
C592   C     0.08269   0.47871   0.78119   0.00000  Uiso   1.00
C593   C    -0.00545   0.46107   0.77209   0.00000  Uiso   1.00
C594   C     0.98013   0.42826   0.76181   0.00000  Uiso   1.00
C595   C     0.98907   0.40033   0.78150   0.00000  Uiso   1.00
C596   C     0.01146   0.40575   0.81141   0.00000  Uiso   1.00
C597   C     0.02481   0.43905   0.82090   0.00000  Uiso   1.00
C598   C     0.95751   0.42255   0.73217   0.00000  Uiso   1.00
C599   C     0.94448   0.38947   0.72188   0.00000  Uiso   1.00
C600   C     0.95394   0.36129   0.74088   0.00000  Uiso   1.00
C601   C     0.97608   0.36679   0.77095   0.00000  Uiso   1.00
C602   C     0.98580   0.33868   0.79014   0.00000  Uiso   1.00
C603   C     0.00772   0.34455   0.82024   0.00000  Uiso   1.00
C604   C     0.02036   0.37772   0.83078   0.00000  Uiso   1.00
C605   C     0.94260   0.32749   0.73007   0.00000  Uiso   1.00
C606   C     0.97402   0.30524   0.77815   0.00000  Uiso   1.00
C607   C     0.94546   0.26550   0.73360   0.00000  Uiso   1.00
C608   C     0.89158   0.26535   0.76173   0.00000  Uiso   1.00
C609   C     0.90409   0.21932   0.71738   0.00000  Uiso   1.00
C610   C     1.00004   0.26497   0.70741   0.00000  Uiso   1.00
C611   C     0.95550   0.21912   0.69130   0.00000  Uiso   1.00
C612   C     0.96661   0.24917   0.71138   0.00000  Uiso   1.00
C613   C     0.91461   0.24965   0.73761   0.00000  Uiso   1.00
C614   C     0.92366   0.20489   0.69302   0.00000  Uiso   1.00
H615   H     0.01620   0.26726   0.73207   0.00000  Uiso   1.00
N616   N     0.01665   0.46575   0.80102   0.00000  Uiso   1.00
N617   N     0.95348   0.30018   0.74820   0.00000  Uiso   1.00
H618   H     0.99619   0.29111   0.69815   0.00000  Uiso   1.00
H619   H     0.02407   0.57191   0.86296   0.00000  Uiso   1.00
H620   H     0.11053   0.53600   0.81684   0.00000  Uiso   1.00
H621   H    -0.02732   0.54168   0.85409   0.00000  Uiso   1.00
H622   H     0.96408   0.51838   0.81326   0.00000  Uiso   1.00
H623   H    -0.02138   0.49549   0.84986   0.00000  Uiso   1.00
H624   H     0.06765   0.47606   0.75594   0.00000  Uiso   1.00
H625   H     0.10848   0.48721   0.77800   0.00000  Uiso   1.00
H626   H     0.08463   0.45311   0.79174   0.00000  Uiso   1.00
O627   O     0.04678   0.44469   0.84997   0.00000  Uiso   1.00
O628   O     0.98694   0.48833   0.75275   0.00000  Uiso   1.00
H629   H     0.95004   0.44355   0.71666   0.00000  Uiso   1.00
H630   H     0.03751   0.38122   0.85392   0.00000  Uiso   1.00
H631   H     0.92738   0.38594   0.69871   0.00000  Uiso   1.00
H632   H     0.88726   0.24643   0.78009   0.00000  Uiso   1.00
H633   H     0.90211   0.28929   0.77619   0.00000  Uiso   1.00
H634   H     0.87941   0.20861   0.71889   0.00000  Uiso   1.00
H635   H     0.01550   0.32348   0.83553   0.00000  Uiso   1.00
H636   H     1.01362   0.24893   0.68916   0.00000  Uiso   1.00
O637   O     0.98401   0.27740   0.79595   0.00000  Uiso   1.00
O638   O     0.92159   0.32159   0.70039   0.00000  Uiso   1.00
H639   H     0.86703   0.27182   0.74757   0.00000  Uiso   1.00
H640   H     0.02326   0.72368   0.92200   0.00000  Uiso   1.00
C641   C     0.69557   0.76726   0.06006   0.00000  Uiso   1.00
C642   C     0.71547   0.74857   0.08354   0.00000  Uiso   1.00
C643   C     0.74621   0.73413   0.07604   0.00000  Uiso   1.00
C644   C     0.75707   0.73832   0.04444   0.00000  Uiso   1.00
C645   C     0.73569   0.75430   1.01962   0.00000  Uiso   1.00
C646   C     0.70526   0.76891   0.02776   0.00000  Uiso   1.00
C647   C     0.76809   0.71588   0.10231   0.00000  Uiso   1.00
C648   C     0.74606   0.75734   0.98512   0.00000  Uiso   1.00
C649   C     0.80077   0.70058   1.02468   0.00000  Uiso   1.00
C650   C     0.83436   0.69469   1.01877   0.00000  Uiso   1.00
C651   C     0.85840   0.72123   1.02854   0.00000  Uiso   1.00
C652   C     0.84866   0.75290   0.04428   0.00000  Uiso   1.00
C653   C     0.81484   0.75763   0.04952   0.00000  Uiso   1.00
C654   C     0.84441   0.66323   1.00302   0.00000  Uiso   1.00
C655   C     0.87772   0.65842   0.99650   0.00000  Uiso   1.00
C656   C     0.90172   0.68497   1.00559   0.00000  Uiso   1.00
C657   C     0.89213   0.71632   1.02205   0.00000  Uiso   1.00
C658   C     0.91603   0.74303   1.03146   0.00000  Uiso   1.00
C659   C     0.90611   0.77427   1.04774   0.00000  Uiso   1.00
C660   C     0.87276   0.77920   0.05399   0.00000  Uiso   1.00
C661   C     0.93488   0.68141   0.99767   0.00000  Uiso   1.00
C662   C     0.94905   0.73811   1.02338   0.00000  Uiso   1.00
C663   C     0.98947   0.70562   0.99259   0.00000  Uiso   1.00
C664   C     1.01403   0.66930   0.03996   0.00000  Uiso   1.00
C665   C     0.04340   0.67656   0.98953   0.00000  Uiso   1.00
C666   C     0.96570   0.74318   0.94638   0.00000  Uiso   1.00
C667   C     0.02141   0.71290   0.94579   0.00000  Uiso   1.00
C668   C     0.99303   0.72062   0.96230   0.00000  Uiso   1.00
C669   C     1.01557   0.68461   1.00693   0.00000  Uiso   1.00
C670   C     0.04606   0.68964   0.95836   0.00000  Uiso   1.00
H671   H     0.96356   0.76742   0.96277   0.00000  Uiso   1.00
N672   N     0.79168   0.73174   0.03957   0.00000  Uiso   1.00
N673   N     0.95752   0.70812   1.00585   0.00000  Uiso   1.00
H674   H     0.94117   0.72931   0.94278   0.00000  Uiso   1.00
H675   H     0.70840   0.74761   0.10867   0.00000  Uiso   1.00
H676   H     0.68989   0.78315   1.00943   0.00000  Uiso   1.00
H677   H     0.75618   0.71512   0.12584   0.00000  Uiso   1.00
H678   H     0.77237   0.68881   0.09242   0.00000  Uiso   1.00
H679   H     0.79272   0.72934   0.10875   0.00000  Uiso   1.00
H680   H     0.74914   0.73110   0.97253   0.00000  Uiso   1.00
H681   H     0.72697   0.77128   0.96885   0.00000  Uiso   1.00
H682   H     0.77027   0.77158   0.98711   0.00000  Uiso   1.00
O683   O     0.80483   0.78864   0.06429   0.00000  Uiso   1.00
O684   O     0.77690   0.67524   1.01508   0.00000  Uiso   1.00
H685   H     0.82650   0.64236   0.99535   0.00000  Uiso   1.00
H686   H     0.86587   0.80378   0.06618   0.00000  Uiso   1.00
H687   H     0.88449   0.63399   0.98396   0.00000  Uiso   1.00
H688   H     0.03701   0.67692   0.05743   0.00000  Uiso   1.00
H689   H     0.99186   0.67836   0.05231   0.00000  Uiso   1.00
H690   H     0.06213   0.65864   0.99967   0.00000  Uiso   1.00
H691   H     0.92392   0.79523   1.05524   0.00000  Uiso   1.00
H692   H     0.97099   0.75042   0.92133   0.00000  Uiso   1.00
O693   O     0.97257   0.76398   1.03202   0.00000  Uiso   1.00
O694   O     0.94422   0.65153   0.98035   0.00000  Uiso   1.00
H695   H     1.01302   0.64062   0.03576   0.00000  Uiso   1.00
H696   H     0.46469   0.46901   0.40342   0.00000  Uiso   1.00
C697   C     0.57766   0.74233   0.18044   0.00000  Uiso   1.00
C698   C     0.55277   0.71895   0.16487   0.00000  Uiso   1.00
C699   C     0.54171   0.69207   0.18216   0.00000  Uiso   1.00
C700   C     0.55514   0.68900   0.21599   0.00000  Uiso   1.00
C701   C     0.57949   0.71303   0.23224   0.00000  Uiso   1.00
C702   C     0.59079   0.73937   0.21421   0.00000  Uiso   1.00
C703   C     0.51635   0.66616   0.16417   0.00000  Uiso   1.00
C704   C     0.59346   0.71042   0.26859   0.00000  Uiso   1.00
C705   C     0.56343   0.63152   0.23529   0.00000  Uiso   1.00
C706   C     0.55259   0.60316   0.25087   0.00000  Uiso   1.00
C707   C     0.52158   0.60528   0.26415   0.00000  Uiso   1.00
C708   C     0.50219   0.63571   0.26213   0.00000  Uiso   1.00
C709   C     0.51442   0.66368   0.24698   0.00000  Uiso   1.00
C710   C     0.57178   0.57273   0.25316   0.00000  Uiso   1.00
C711   C     0.56040   0.54480   0.26862   0.00000  Uiso   1.00
C712   C     0.52943   0.54657   0.28177   0.00000  Uiso   1.00
C713   C     0.50983   0.57683   0.27932   0.00000  Uiso   1.00
C714   C     0.47847   0.57869   0.29192   0.00000  Uiso   1.00
C715   C     0.45923   0.60905   0.28958   0.00000  Uiso   1.00
C716   C     0.47101   0.63732   0.27493   0.00000  Uiso   1.00
C717   C     0.51739   0.51878   0.29731   0.00000  Uiso   1.00
C718   C     0.46717   0.55000   0.30658   0.00000  Uiso   1.00
C719   C     0.47475   0.49237   0.32509   0.00000  Uiso   1.00
C720   C     0.45218   0.46239   0.26749   0.00000  Uiso   1.00
C721   C     0.44352   0.43833   0.32163   0.00000  Uiso   1.00
C722   C     0.49752   0.52235   0.38195   0.00000  Uiso   1.00
C723   C     0.46324   0.46755   0.37618   0.00000  Uiso   1.00
C724   C     0.47835   0.49338   0.36063   0.00000  Uiso   1.00
C725   C     0.45750   0.46444   0.30546   0.00000  Uiso   1.00
C726   C     0.44548   0.44029   0.35684   0.00000  Uiso   1.00
H727   H     0.48545   0.54760   0.37697   0.00000  Uiso   1.00
N728   N     0.54431   0.66096   0.23359   0.00000  Uiso   1.00
N729   N     0.48674   0.52097   0.30918   0.00000  Uiso   1.00
H730   H     0.52384   0.52284   0.37587   0.00000  Uiso   1.00
H731   H     0.54263   0.72103   0.13879   0.00000  Uiso   1.00
H732   H     0.60984   0.75752   0.22647   0.00000  Uiso   1.00
H733   H     0.50866   0.67182   0.13763   0.00000  Uiso   1.00
H734   H     0.52739   0.63977   0.16401   0.00000  Uiso   1.00
H735   H     0.49338   0.66652   0.17713   0.00000  Uiso   1.00
H736   H     0.60697   0.68550   0.27136   0.00000  Uiso   1.00
H737   H     0.61136   0.73178   0.27811   0.00000  Uiso   1.00
H738   H     0.57260   0.71158   0.28455   0.00000  Uiso   1.00
O739   O     0.49603   0.69366   0.24509   0.00000  Uiso   1.00
O740   O     0.59308   0.62952   0.22127   0.00000  Uiso   1.00
H741   H     0.59566   0.57037   0.24307   0.00000  Uiso   1.00
H742   H     0.45549   0.66029   0.27348   0.00000  Uiso   1.00
H743   H     0.57585   0.52177   0.27006   0.00000  Uiso   1.00
H744   H     0.42476   0.46236   0.25862   0.00000  Uiso   1.00
H745   H     0.46374   0.48437   0.25703   0.00000  Uiso   1.00
H746   H     0.42929   0.41758   0.30659   0.00000  Uiso   1.00
H747   H     0.43505   0.61110   0.29911   0.00000  Uiso   1.00
H748   H     0.49826   0.51915   0.40931   0.00000  Uiso   1.00
O749   O     0.43643   0.55113   0.31857   0.00000  Uiso   1.00
O750   O     0.53636   0.48930   0.30054   0.00000  Uiso   1.00
H751   H     0.46333   0.43805   0.25720   0.00000  Uiso   1.00
loop_
_geom_bond_atom_site_label_1
_geom_bond_atom_site_label_2
_geom_bond_distance
_geom_bond_site_symmetry_2
_ccdc_geom_bond_type
Pr0    O3      2.291   .     S
Pr0    O4      2.296   .     S
Pr0    O5      2.270   .     S
Pr0    O6      2.202   .     S
Pr0    O7      2.330   .     S
Pr0    O14     2.296   .     S
Pr0    O18     2.287   .     S
Pr1    O2      2.315   .     S
Pr1    O6      2.206   .     S
Pr1    O15     2.378   .     S
Pr1    O16     2.259   .     S
Pr1    O17     2.279   .     S
Pr1    O18     2.286   .     S
Pr1    O19     2.294   .     S
O2     C9      1.301   .     A
O3     C9      1.295   .     A
O4     C10     1.277   .     A
O5     C10     1.272   .     A
O6     C13     1.369   .     S
O7     C13     1.217   .     D
C8     O18     1.381   .     S
C8     O19     1.217   .     D
C8     C585    1.467   .     S
C9     C670    1.487   .     S
C10    C558    1.476   .     S
C11    O16     1.277   .     A
C11    O17     1.281   .     A
C11    C417    1.477   .     S
C12    O14     1.304   .     A
C12    O15     1.319   .     A
C12    C390    1.485   .     S
C13    C110    1.477   .     S
Pr20   O23     2.289   .     S
Pr20   O24     2.288   .     S
Pr20   O25     2.270   .     S
Pr20   O26     2.180   .     S
Pr20   O27     2.307   .     S
Pr20   O34     2.285   .     S
Pr20   O38     2.267   .     S
Pr21   O22     2.315   .     S
Pr21   O26     2.227   .     S
Pr21   O35     2.359   .     S
Pr21   O36     2.264   .     S
Pr21   O37     2.280   .     S
Pr21   O38     2.305   .     S
Pr21   O39     2.296   .     S
O22    C29     1.305   .     A
O23    C29     1.299   .     A
O24    C30     1.281   .     A
O25    C30     1.278   .     A
O26    C33     1.384   .     S
O27    C33     1.226   .     D
C28    O38     1.373   .     S
C28    O39     1.208   .     D
C28    C334    1.455   .     S
C29    C641    1.477   .     S
C30    C278    1.474   1_554 S
C31    O36     1.277   .     A
C31    O37     1.279   .     A
C31    C697    1.479   .     S
C32    O34     1.299   .     A
C32    O35     1.313   .     A
C32    C166    1.487   .     S
C33    C81     1.469   .     S
Pr40   O43     2.300   .     S
Pr40   O44     2.288   .     S
Pr40   O45     2.251   .     S
Pr40   O46     2.249   .     S
Pr40   O47     2.352   .     S
Pr40   O54     2.294   .     S
Pr40   O58     2.274   .     S
Pr41   O42     2.334   .     S
Pr41   O46     2.214   .     S
Pr41   O55     2.356   .     S
Pr41   O56     2.270   .     S
Pr41   O57     2.262   .     S
Pr41   O58     2.267   .     S
Pr41   O59     2.300   .     S
O42    C49     1.304   .     A
O43    C49     1.300   .     A
O44    C50     1.277   .     A
O45    C50     1.271   .     A
O46    C53     1.355   .     S
O47    C53     1.203   .     D
C48    O58     1.375   .     S
C48    O59     1.208   .     D
C48    C193    1.464   .     S
C49    C614    1.481   .     S
C50    C502    1.472   .     S
C51    O56     1.278   .     A
C51    O57     1.278   .     A
C51    C249    1.474   .     S
C52    O54     1.301   .     A
C52    O55     1.314   .     A
C52    C305    1.474   .     S
C53    C529    1.474   .     S
Pr60   O63     2.279   .     S
Pr60   O64     2.294   .     S
Pr60   O65     2.263   .     S
Pr60   O66     2.202   .     S
Pr60   O67     2.322   .     S
Pr60   O74     2.285   .     S
Pr60   O78     2.292   .     S
Pr61   O62     2.317   .     S
Pr61   O66     2.210   .     S
Pr61   O75     2.384   .     S
Pr61   O76     2.269   .     S
Pr61   O77     2.274   .     S
Pr61   O78     2.286   .     S
Pr61   O79     2.288   .     S
O62    C69     1.300   .     A
O63    C69     1.291   .     A
O64    C70     1.278   .     A
O65    C70     1.273   .     A
O66    C73     1.372   .     S
O67    C73     1.217   .     D
C68    O78     1.386   .     S
C68    O79     1.219   .     D
C68    C446    1.457   .     S
C69    C473    1.486   .     S
C70    C361    1.478   .     S
C71    O76     1.277   .     A
C71    O77     1.279   .     A
C71    C137    1.467   .     S
C72    O74     1.302   .     A
C72    O75     1.321   .     A
C72    C726    1.468   .     S
C73    C222    1.471   .     S
H80    C107    1.083   .     S
C81    C82     1.400   .     A
C81    C86     1.400   .     A
C82    C83     1.404   .     A
C82    H115    1.084   .     S
C83    C84     1.415   .     A
C83    C87     1.504   .     S
C84    C85     1.412   .     A
C84    N112    1.442   .     S
C85    C86     1.401   .     A
C85    C88     1.507   .     S
C86    H116    1.084   .     S
C87    H117    1.110   .     S
C87    H119    1.110   .     S
C87    H118    1.109   1_554 S
C88    H121    1.112   .     S
C88    H122    1.110   .     S
C88    H120    1.111   1_554 S
C89    C90     1.407   .     A
C89    O124    1.373   .     S
C89    N112    1.370   1_556 A
C90    C91     1.409   .     A
C90    C94     1.405   .     A
C91    C97     1.415   .     A
C91    C92     1.408   1_556 A
C92    C93     1.405   .     A
C92    C100    1.405   .     A
C92    C91     1.408   1_554 A
C93    N112    1.371   .     A
C93    O123    1.373   .     S
C94    C95     1.397   .     A
C94    H125    1.083   .     S
C95    C96     1.406   .     A
C95    H127    1.083   .     S
C96    C97     1.408   .     A
C96    C101    1.405   .     A
C97    C98     1.410   .     A
C98    C102    1.407   .     A
C98    C99     1.405   1_556 A
C99    C100    1.397   .     A
C99    H131    1.083   .     S
C99    C98     1.405   1_554 A
C100   H126    1.083   .     S
C101   N113    1.371   .     A
C101   O134    1.373   .     S
C102   N113    1.369   .     A
C102   O133    1.373   1_556 S
C103   C108    1.411   .     A
C103   C109    1.415   .     A
C103   N113    1.442   .     S
C104   C109    1.504   .     S
C104   H128    1.110   .     S
C104   H129    1.109   .     S
C104   H135    1.110   .     S
C105   C109    1.405   .     A
C105   C110    1.401   .     A
C105   H130    1.084   .     S
C106   C108    1.506   .     S
C106   H111    1.111   .     S
C106   H114    1.110   .     S
C106   H132    1.111   .     S
C107   C108    1.402   .     A
C107   C110    1.402   .     A
N112   C89     1.370   1_554 A
H118   C87     1.109   1_556 S
H120   C88     1.111   1_556 S
O133   C102    1.373   1_554 S
H136   C163    1.083   .     S
C137   C138    1.400   .     A
C137   C142    1.398   .     A
C138   C139    1.406   .     A
C138   H171    1.084   .     S
C139   C140    1.414   .     A
C139   C143    1.505   .     S
C140   C141    1.412   .     A
C140   N168    1.441   .     S
C141   C142    1.402   .     A
C141   C144    1.504   .     S
C142   H172    1.084   .     S
C143   H173    1.111   .     S
C143   H174    1.110   .     S
C143   H175    1.110   .     S
C144   H176    1.110   .     S
C144   H177    1.111   .     S
C144   H178    1.110   .     S
C145   C146    1.405   .     A
C145   N168    1.370   .     A
C145   O180    1.373   .     S
C146   C147    1.409   .     A
C146   C150    1.405   .     A
C147   C148    1.409   .     A
C147   C153    1.415   .     A
C148   C149    1.406   .     A
C148   C156    1.406   .     A
C149   N168    1.371   .     A
C149   O179    1.373   .     S
C150   C151    1.397   .     A
C150   H181    1.083   .     S
C151   C152    1.405   .     A
C151   H183    1.083   .     S
C152   C153    1.409   .     A
C152   C157    1.406   .     A
C153   C154    1.409   .     A
C154   C155    1.406   .     A
C154   C158    1.407   .     A
C155   C156    1.398   .     A
C155   H187    1.083   .     S
C156   H182    1.083   .     S
C157   N169    1.370   .     A
C157   O190    1.373   .     S
C158   N169    1.371   .     A
C158   O189    1.372   .     S
C159   C164    1.413   .     A
C159   C165    1.412   .     A
C159   N169    1.443   1_565 S
C160   H184    1.110   .     S
C160   H185    1.108   .     S
C160   H191    1.111   .     S
C160   C165    1.507   1_545 S
C161   C165    1.399   .     A
C161   C166    1.406   .     A
C161   H186    1.083   .     S
C162   C164    1.504   .     S
C162   H167    1.110   .     S
C162   H170    1.110   .     S
C162   H188    1.111   .     S
C163   C164    1.408   .     A
C163   C166    1.404   .     A
C165   C160    1.507   1_565 S
N169   C159    1.443   1_545 S
H192   C219    1.082   .     S
C193   C194    1.398   .     A
C193   C198    1.399   .     A
C194   C195    1.404   .     A
C194   H227    1.084   .     S
C195   C196    1.414   .     A
C195   C199    1.505   .     S
C196   C197    1.413   .     A
C196   N224    1.442   .     S
C197   C198    1.402   .     A
C197   C200    1.505   .     S
C198   H228    1.084   .     S
C199   H229    1.111   .     S
C199   H230    1.110   .     S
C199   H231    1.110   .     S
C200   H232    1.110   .     S
C200   H233    1.111   .     S
C200   H234    1.109   .     S
C201   C202    1.409   .     A
C201   N224    1.369   .     A
C201   O236    1.373   .     S
C202   C203    1.410   .     A
C202   C206    1.405   .     A
C203   C204    1.407   .     A
C203   C209    1.414   .     A
C204   C205    1.403   .     A
C204   C212    1.405   .     A
C205   N224    1.372   .     A
C205   O235    1.374   .     S
C206   C207    1.398   .     A
C206   H237    1.083   .     S
C207   C208    1.406   .     A
C207   H239    1.083   .     S
C208   C209    1.407   .     A
C208   C213    1.405   .     A
C209   C210    1.410   .     A
C210   C211    1.405   .     A
C210   C214    1.406   .     A
C211   C212    1.396   .     A
C211   H243    1.083   .     S
C212   H238    1.083   .     S
C213   N225    1.371   .     A
C213   O246    1.373   .     S
C214   N225    1.369   .     A
C214   O245    1.373   .     S
C215   C220    1.412   .     A
C215   C221    1.415   .     A
C215   N225    1.440   .     S
C216   C221    1.505   .     S
C216   H240    1.110   .     S
C216   H241    1.108   .     S
C216   H247    1.109   .     S
C217   C221    1.404   .     A
C217   C222    1.401   .     A
C217   H242    1.084   .     S
C218   C220    1.506   .     S
C218   H223    1.109   .     S
C218   H226    1.109   .     S
C218   H244    1.110   .     S
C219   C220    1.398   .     A
C219   C222    1.398   .     A
H248   C275    1.085   .     S
C249   C250    1.400   .     A
C249   C254    1.401   .     A
C250   C251    1.401   .     A
C250   H283    1.084   .     S
C251   C252    1.413   .     A
C251   C255    1.505   .     S
C252   C253    1.415   .     A
C252   N280    1.443   .     S
C253   C254    1.405   .     A
C253   C256    1.506   1_545 S
C254   H284    1.084   .     S
C255   H285    1.111   .     S
C255   H286    1.109   .     S
C255   H287    1.110   .     S
C256   H288    1.110   .     S
C256   H289    1.111   .     S
C256   H290    1.109   .     S
C256   C253    1.506   1_565 S
C257   C258    1.407   .     A
C257   N280    1.371   .     A
C257   O292    1.373   .     S
C258   C259    1.409   .     A
C258   C262    1.405   .     A
C259   C260    1.408   .     A
C259   C265    1.415   1_545 A
C260   C261    1.405   .     A
C260   C268    1.405   1_545 A
C261   N280    1.371   .     A
C261   O291    1.373   .     S
C262   C263    1.398   .     A
C262   H293    1.083   .     S
C263   H295    1.083   .     S
C263   C264    1.406   1_545 A
C264   C265    1.408   .     A
C264   C269    1.407   .     A
C264   C263    1.406   1_565 A
C265   C266    1.409   .     A
C265   C259    1.415   1_565 A
C266   C267    1.405   .     A
C266   C270    1.406   .     A
C267   C268    1.397   .     A
C267   H299    1.083   .     S
C268   H294    1.083   .     S
C268   C260    1.405   1_565 A
C269   N281    1.372   .     A
C269   O302    1.373   .     S
C270   N281    1.371   .     A
C270   O301    1.373   .     S
C271   C276    1.415   .     A
C271   C277    1.419   .     A
C271   N281    1.445   .     S
C272   H296    1.110   .     S
C272   H297    1.108   .     S
C272   H303    1.110   .     S
C272   C277    1.506   1_545 S
C273   C277    1.406   .     A
C273   C278    1.399   .     A
C273   H298    1.084   1_556 S
C274   C276    1.508   .     S
C274   H279    1.110   .     S
C274   H282    1.108   .     S
C274   H300    1.110   .     S
C275   C276    1.401   .     A
C275   C278    1.401   .     A
C277   C272    1.506   1_565 S
C278   C30     1.474   1_556 S
H298   C273    1.084   1_554 S
H304   C331    1.085   .     S
C305   C306    1.403   .     A
C305   C310    1.400   .     A
C306   C307    1.400   .     A
C306   H339    1.084   .     S
C307   C308    1.411   .     A
C307   C311    1.506   .     S
C308   C309    1.413   .     A
C308   N336    1.441   .     S
C309   C310    1.406   .     A
C309   C312    1.504   1_545 S
C310   H340    1.084   .     S
C311   H341    1.111   .     S
C311   H342    1.110   .     S
C311   H343    1.111   .     S
C312   H344    1.110   .     S
C312   H345    1.111   .     S
C312   H346    1.110   .     S
C312   C309    1.504   1_565 S
C313   C314    1.404   .     A
C313   N336    1.370   .     A
C313   O348    1.373   .     S
C314   C318    1.405   .     A
C314   C315    1.408   1_545 A
C315   C316    1.409   .     A
C315   C321    1.414   .     A
C315   C314    1.408   1_565 A
C316   C324    1.405   .     A
C316   C317    1.406   1_565 A
C317   N336    1.370   .     A
C317   O347    1.373   .     S
C317   C316    1.406   1_545 A
C318   H349    1.083   .     S
C318   C319    1.397   1_545 A
C319   C320    1.405   .     A
C319   H351    1.083   .     S
C319   C318    1.397   1_565 A
C320   C321    1.409   .     A
C320   C325    1.405   .     A
C321   C322    1.408   .     A
C322   C323    1.405   .     A
C322   C326    1.404   .     A
C323   C324    1.397   .     A
C323   H355    1.083   .     S
C324   H350    1.083   .     S
C325   N337    1.370   .     A
C325   O358    1.373   .     S
C326   N337    1.371   .     A
C326   O357    1.373   .     S
C327   C332    1.414   .     A
C327   C333    1.417   .     A
C327   N337    1.441   .     S
C328   C333    1.503   .     S
C328   H352    1.111   .     S
C328   H353    1.109   .     S
C328   H359    1.111   .     S
C329   C333    1.402   .     A
C329   C334    1.395   .     A
C329   H354    1.085   .     S
C330   C332    1.506   .     S
C330   H335    1.110   .     S
C330   H338    1.109   .     S
C330   H356    1.111   .     S
C331   C332    1.398   .     A
C331   C334    1.396   .     A
H360   C387    1.083   .     S
C361   C362    1.404   .     A
C361   C366    1.402   .     A
C362   C363    1.400   .     A
C362   H395    1.084   .     S
C363   C364    1.409   .     A
C363   C367    1.506   .     S
C364   C365    1.413   .     A
C364   N392    1.441   .     S
C365   C366    1.407   .     A
C365   C368    1.504   .     S
C366   H396    1.083   .     S
C367   H397    1.111   .     S
C367   H398    1.109   .     S
C367   H399    1.110   .     S
C368   H400    1.111   .     S
C368   H401    1.111   .     S
C368   H402    1.110   .     S
C369   C370    1.406   .     A
C369   N392    1.369   .     A
C369   O404    1.373   .     S
C370   C371    1.409   .     A
C370   C374    1.405   .     A
C371   C372    1.408   .     A
C371   C377    1.414   .     A
C372   C373    1.405   .     A
C372   C380    1.406   .     A
C373   N392    1.371   .     A
C373   O403    1.373   .     S
C374   C375    1.397   .     A
C374   H405    1.083   .     S
C375   C376    1.405   .     A
C375   H407    1.083   .     S
C376   C377    1.409   .     A
C376   C381    1.405   .     A
C377   C378    1.409   .     A
C378   C379    1.405   .     A
C378   C382    1.406   .     A
C379   C380    1.397   .     A
C379   H411    1.083   .     S
C380   H406    1.083   .     S
C381   N393    1.370   .     A
C381   O414    1.373   .     S
C382   N393    1.370   .     A
C382   O413    1.373   .     S
C383   C388    1.410   .     A
C383   C389    1.414   .     A
C383   N393    1.441   .     S
C384   C389    1.505   .     S
C384   H408    1.110   .     S
C384   H409    1.109   .     S
C384   H415    1.110   .     S
C385   C389    1.407   .     A
C385   C390    1.405   .     A
C385   H410    1.084   .     S
C386   C388    1.507   .     S
C386   H391    1.110   .     S
C386   H394    1.110   .     S
C386   H412    1.110   .     S
C387   C388    1.399   .     A
C387   C390    1.405   .     A
H416   C443    1.084   .     S
C417   C418    1.402   .     A
C417   C422    1.404   .     A
C418   H451    1.083   .     S
C418   C419    1.400   1_556 A
C419   C420    1.410   .     A
C419   C423    1.506   .     S
C419   C418    1.400   1_554 A
C420   C421    1.413   .     A
C420   N448    1.440   .     S
C421   C424    1.505   .     S
C421   C422    1.407   1_554 A
C422   H452    1.084   .     S
C422   C421    1.407   1_556 A
C423   H453    1.111   .     S
C423   H454    1.110   .     S
C423   H455    1.110   .     S
C424   H456    1.110   .     S
C424   H458    1.111   .     S
C424   H457    1.110   1_554 S
C425   C426    1.404   .     A
C425   N448    1.370   .     A
C425   O460    1.373   .     S
C426   C427    1.408   .     A
C426   C430    1.405   .     A
C427   C428    1.409   .     A
C427   C433    1.413   .     A
C428   C429    1.404   .     A
C428   C436    1.405   .     A
C429   N448    1.370   .     A
C429   O459    1.373   .     S
C430   C431    1.396   .     A
C430   H461    1.083   .     S
C431   C432    1.404   .     A
C431   H463    1.083   .     S
C432   C433    1.409   .     A
C432   C437    1.403   .     A
C433   C434    1.409   .     A
C434   C435    1.405   .     A
C434   C438    1.403   .     A
C435   C436    1.396   .     A
C435   H467    1.083   .     S
C436   H462    1.083   .     S
C437   N449    1.369   .     A
C437   O470    1.373   .     S
C438   N449    1.370   .     A
C438   O469    1.373   .     S
C439   C444    1.412   .     A
C439   C445    1.416   .     A
C439   N449    1.437   .     S
C440   C445    1.506   .     S
C440   H464    1.110   .     S
C440   H465    1.109   .     S
C440   H471    1.110   .     S
C441   C445    1.403   .     A
C441   C446    1.398   .     A
C441   H466    1.084   .     S
C442   C444    1.506   .     S
C442   H447    1.111   .     S
C442   H450    1.110   .     S
C442   H468    1.111   .     S
C443   C444    1.398   .     A
C443   C446    1.396   .     A
H457   C424    1.110   1_556 S
H472   C499    1.084   1_655 S
C473   C474    1.407   .     A
C473   C478    1.404   .     A
C474   C475    1.395   .     A
C474   H507    1.083   .     S
C475   C476    1.410   .     A
C475   C479    1.509   .     S
C476   C477    1.414   .     A
C476   N504    1.440   .     S
C477   C478    1.409   .     A
C477   C480    1.505   .     S
C478   H508    1.083   .     S
C479   H509    1.110   .     S
C479   H510    1.110   .     S
C479   H511    1.109   .     S
C480   H512    1.109   .     S
C480   H513    1.110   .     S
C480   H514    1.110   .     S
C481   C482    1.403   .     A
C481   N504    1.371   .     A
C481   O516    1.373   .     S
C482   C483    1.407   .     A
C482   C486    1.405   .     A
C483   C484    1.410   .     A
C483   C489    1.413   .     A
C484   C485    1.405   .     A
C484   C492    1.404   .     A
C485   N504    1.369   .     A
C485   O515    1.373   .     S
C486   C487    1.397   .     A
C486   H517    1.083   .     S
C487   C488    1.405   .     A
C487   H519    1.083   .     S
C488   C489    1.410   .     A
C488   C493    1.405   .     A
C489   C490    1.408   .     A
C490   C491    1.406   .     A
C490   C494    1.404   .     A
C491   C492    1.397   .     A
C491   H523    1.083   .     S
C492   H518    1.083   .     S
C493   N505    1.369   .     A
C493   O526    1.373   .     S
C494   N505    1.371   .     A
C494   O525    1.373   .     S
C495   C500    1.410   .     A
C495   C501    1.416   .     A
C495   N505    1.439   .     S
C496   C501    1.504   .     S
C496   H520    1.110   .     S
C496   H521    1.109   .     S
C496   H527    1.111   .     S
C497   C502    1.401   .     A
C497   H522    1.084   .     S
C497   C501    1.406   1_655 A
C498   C500    1.505   .     S
C498   H503    1.110   .     S
C498   H506    1.110   .     S
C498   H524    1.111   .     S
C499   C500    1.396   .     A
C499   H472    1.084   1_455 S
C499   C502    1.401   1_455 A
C501   C497    1.406   1_455 A
C502   C499    1.401   1_655 A
H528   C555    1.084   .     S
C529   C530    1.401   .     A
C529   C534    1.401   .     A
C530   C531    1.401   .     A
C530   H563    1.084   .     S
C531   C532    1.411   .     A
C531   C535    1.507   1_545 S
C532   C533    1.415   .     A
C532   N560    1.443   1_545 S
C533   C534    1.409   .     A
C533   C536    1.505   .     S
C534   H564    1.084   .     S
C535   H565    1.111   .     S
C535   H566    1.110   .     S
C535   H567    1.110   .     S
C535   C531    1.507   1_565 S
C536   H568    1.110   .     S
C536   H569    1.111   .     S
C536   H570    1.111   .     S
C537   C538    1.406   .     A
C537   N560    1.370   .     A
C537   O572    1.373   1_565 S
C538   C539    1.408   .     A
C538   C542    1.405   1_655 A
C539   C540    1.409   .     A
C539   C545    1.415   .     A
C540   C541    1.408   .     A
C540   C548    1.406   .     A
C541   N560    1.371   .     A
C541   O571    1.373   .     S
C542   C543    1.397   .     A
C542   H573    1.083   .     S
C542   C538    1.405   1_455 A
C543   C544    1.405   .     A
C543   H575    1.083   .     S
C544   C549    1.406   .     A
C544   C545    1.409   1_455 A
C545   C546    1.409   .     A
C545   C544    1.409   1_655 A
C546   C547    1.406   .     A
C546   C550    1.407   .     A
C547   C548    1.398   .     A
C547   H579    1.083   .     S
C548   H574    1.083   .     S
C549   N561    1.370   .     A
C549   O582    1.373   .     S
C550   O581    1.373   .     S
C550   N561    1.371   1_655 A
C551   C556    1.411   .     A
C551   C557    1.417   .     A
C551   N561    1.443   .     S
C552   C557    1.505   .     S
C552   H576    1.110   .     S
C552   H577    1.109   .     S
C552   H583    1.111   .     S
C553   C557    1.407   .     A
C553   C558    1.401   .     A
C553   H578    1.084   .     S
C554   C556    1.506   .     S
C554   H559    1.110   .     S
C554   H562    1.110   .     S
C554   H580    1.111   .     S
C555   C556    1.400   .     A
C555   C558    1.401   .     A
N560   C532    1.443   1_565 S
N561   C550    1.371   1_455 A
O572   C537    1.373   1_545 S
H584   C611    1.084   .     S
C585   C586    1.400   .     A
C585   C590    1.398   .     A
C586   C587    1.405   .     A
C586   H619    1.084   .     S
C587   C588    1.413   .     A
C587   C591    1.505   .     S
C588   C589    1.413   .     A
C588   N616    1.442   .     S
C589   C590    1.400   .     A
C589   C592    1.504   .     S
C590   H620    1.084   .     S
C591   H621    1.111   .     S
C591   H623    1.111   .     S
C591   H622    1.110   1_455 S
C592   H624    1.110   .     S
C592   H625    1.111   .     S
C592   H626    1.109   .     S
C593   N616    1.369   .     A
C593   C594    1.408   1_455 A
C593   O628    1.372   1_455 S
C594   C595    1.410   .     A
C594   C598    1.405   .     A
C594   C593    1.408   1_655 A
C595   C601    1.415   .     A
C595   C596    1.407   1_655 A
C596   C597    1.404   .     A
C596   C604    1.406   .     A
C596   C595    1.407   1_455 A
C597   N616    1.371   .     A
C597   O627    1.373   .     S
C598   C599    1.398   .     A
C598   H629    1.083   .     S
C599   C600    1.406   .     A
C599   H631    1.083   .     S
C600   C601    1.407   .     A
C600   C605    1.405   .     A
C601   C602    1.410   .     A
C602   C606    1.407   .     A
C602   C603    1.405   1_655 A
C603   C604    1.397   .     A
C603   H635    1.083   .     S
C603   C602    1.405   1_455 A
C604   H630    1.083   .     S
C605   N617    1.371   .     A
C605   O638    1.373   .     S
C606   N617    1.370   .     A
C606   O637    1.373   .     S
C607   C612    1.412   .     A
C607   C613    1.415   .     A
C607   N617    1.442   .     S
C608   C613    1.505   .     S
C608   H632    1.110   .     S
C608   H633    1.109   .     S
C608   H639    1.110   .     S
C609   C613    1.407   .     A
C609   C614    1.404   .     A
C609   H634    1.084   .     S
C610   C612    1.507   .     S
C610   H618    1.110   .     S
C610   H636    1.111   .     S
C610   H615    1.110   1_655 S
C611   C612    1.401   .     A
C611   C614    1.404   .     A
H615   C610    1.110   1_455 S
H622   C591    1.110   1_655 S
O628   C593    1.372   1_655 S
H640   C667    1.084   .     S
C641   C642    1.402   .     A
C641   C646    1.403   .     A
C642   C643    1.403   .     A
C642   H675    1.083   .     S
C643   C644    1.411   .     A
C643   C647    1.505   .     S
C644   N672    1.440   .     S
C644   C645    1.411   1_554 A
C645   C648    1.506   .     S
C645   C644    1.411   1_556 A
C645   C646    1.402   1_556 A
C646   C645    1.402   1_554 A
C646   H676    1.083   1_554 S
C647   H677    1.110   .     S
C647   H678    1.110   .     S
C647   H679    1.110   .     S
C648   H680    1.109   .     S
C648   H681    1.110   .     S
C648   H682    1.109   .     S
C649   C650    1.407   .     A
C649   O684    1.373   .     S
C649   N672    1.368   1_556 A
C650   C651    1.411   .     A
C650   C654    1.404   .     A
C651   C657    1.414   .     A
C651   C652    1.407   1_556 A
C652   C653    1.403   .     A
C652   C660    1.405   .     A
C652   C651    1.407   1_554 A
C653   N672    1.371   .     A
C653   O683    1.373   .     S
C654   C655    1.398   .     A
C654   H685    1.083   .     S
C655   C656    1.406   .     A
C655   H687    1.083   .     S
C656   C657    1.407   .     A
C656   C661    1.405   .     A
C657   C658    1.410   .     A
C658   C659    1.405   .     A
C658   C662    1.406   .     A
C659   H691    1.083   .     S
C659   C660    1.396   1_556 A
C660   H686    1.083   .     S
C660   C659    1.396   1_554 A
C661   N673    1.372   .     A
C661   O694    1.373   .     S
C662   N673    1.370   .     A
C662   O693    1.373   .     S
C663   C668    1.412   .     A
C663   C669    1.415   .     A
C663   N673    1.443   .     S
C664   H689    1.109   .     S
C664   H695    1.110   .     S
C664   C669    1.504   1_554 S
C664   H688    1.111   1_655 S
C665   C670    1.403   .     A
C665   H690    1.083   .     S
C665   C669    1.405   1_455 A
C666   C668    1.508   .     S
C666   H671    1.109   .     S
C666   H674    1.110   .     S
C666   H692    1.110   .     S
C667   C670    1.407   .     A
C667   C668    1.401   1_455 A
C668   C667    1.401   1_655 A
C669   C664    1.504   1_556 S
C669   C665    1.405   1_655 A
N672   C649    1.368   1_554 A
H676   C646    1.083   1_556 S
H688   C664    1.111   1_455 S
H696   C723    1.084   .     S
C697   C698    1.403   .     A
C697   C702    1.404   .     A
C698   C699    1.401   .     A
C698   H731    1.083   .     S
C699   C700    1.411   .     A
C699   C703    1.507   .     S
C700   C701    1.413   .     A
C700   N728    1.441   .     S
C701   C702    1.407   .     A
C701   C704    1.507   .     S
C702   H732    1.084   .     S
C703   H733    1.110   .     S
C703   H734    1.110   .     S
C703   H735    1.109   .     S
C704   H736    1.110   .     S
C704   H737    1.110   .     S
C704   H738    1.111   .     S
C705   C706    1.405   .     A
C705   N728    1.370   .     A
C705   O740    1.373   .     S
C706   C707    1.408   .     A
C706   C710    1.405   .     A
C707   C708    1.409   .     A
C707   C713    1.413   .     A
C708   C709    1.404   .     A
C708   C716    1.405   .     A
C709   N728    1.370   .     A
C709   O739    1.373   .     S
C710   C711    1.397   .     A
C710   H741    1.083   .     S
C711   C712    1.404   .     A
C711   H743    1.083   .     S
C712   C713    1.409   .     A
C712   C717    1.404   .     A
C713   C714    1.408   .     A
C714   C715    1.404   .     A
C714   C718    1.403   .     A
C715   C716    1.396   .     A
C715   H747    1.083   .     S
C716   H742    1.083   .     S
C717   N729    1.369   .     A
C717   O750    1.373   .     S
C718   N729    1.369   .     A
C718   O749    1.374   .     S
C719   C724    1.412   .     A
C719   C725    1.415   .     A
C719   N729    1.437   .     S
C720   C725    1.507   .     S
C720   H744    1.111   .     S
C720   H745    1.108   .     S
C720   H751    1.110   .     S
C721   C725    1.401   .     A
C721   C726    1.400   .     A
C721   H746    1.084   .     S
C722   C724    1.507   .     S
C722   H727    1.110   .     S
C722   H730    1.110   .     S
C722   H748    1.111   .     S
C723   C724    1.400   .     A
C723   C726    1.400   .     A
