data_lcy+N394+E1
_audit_creation_date              2025-01-21
_audit_creation_method            'Materials Studio'
_symmetry_space_group_name_H-M    'P1'
_symmetry_Int_Tables_number       1
_symmetry_cell_setting            triclinic
loop_
_symmetry_equiv_pos_as_xyz
  x,y,z
_cell_length_a                    34.1706
_cell_length_b                    31.4598
_cell_length_c                    32.9857
_cell_angle_alpha                 95.5325
_cell_angle_beta                  97.7063
_cell_angle_gamma                 88.7885
loop_
_atom_site_label
_atom_site_type_symbol
_atom_site_fract_x
_atom_site_fract_y
_atom_site_fract_z
_atom_site_U_iso_or_equiv
_atom_site_adp_type
_atom_site_occupancy
Pr0    Pr    0.09330   0.67173   0.87640   0.00000  Uiso   1.00
Pr1    Pr    0.13788   0.61036   0.94637   0.00000  Uiso   1.00
O2     O     0.07151   0.63489   0.94950   0.00000  Uiso   1.00
O3     O     0.06451   0.70074   0.92956   0.00000  Uiso   1.00
O4     O     0.04686   0.70273   0.83099   0.00000  Uiso   1.00
O5     O     0.10252   0.73303   0.84761   0.00000  Uiso   1.00
O6     O     0.15350   0.66240   0.91082   0.00000  Uiso   1.00
O7     O     0.13799   0.72640   0.90372   0.00000  Uiso   1.00
C8     C     0.08634   0.57108   0.88241   0.00000  Uiso   1.00
C9     C     0.05533   0.67270   0.95185   0.00000  Uiso   1.00
C10    C     0.06858   0.73399   0.82680   0.00000  Uiso   1.00
C11    C     0.17540   0.55337   0.99262   0.00000  Uiso   1.00
C12    C     0.15532   0.60592   0.84367   0.00000  Uiso   1.00
C13    C     0.16308   0.70404   0.92058   0.00000  Uiso   1.00
O14    O     0.12951   0.63462   0.83304   0.00000  Uiso   1.00
O15    O     0.16162   0.59297   0.88078   0.00000  Uiso   1.00
O16    O     0.19406   0.58081   0.97619   0.00000  Uiso   1.00
O17    O     0.13781   0.55300   0.98242   0.00000  Uiso   1.00
O18    O     0.07766   0.60915   0.90427   0.00000  Uiso   1.00
O19    O     0.11981   0.55925   0.89310   0.00000  Uiso   1.00
Pr20   Pr    0.63610   0.86777   0.07140   0.00000  Uiso   1.00
Pr21   Pr    0.60394   0.80040   0.13216   0.00000  Uiso   1.00
O22    O     0.66626   0.78696   0.10611   0.00000  Uiso   1.00
O23    O     0.66455   0.80986   0.04363   0.00000  Uiso   1.00
O24    O     0.68239   0.90733   0.04902   0.00000  Uiso   1.00
O25    O     0.62420   0.90521   1.01541   0.00000  Uiso   1.00
O26    O     0.57846   0.83797   0.08095   0.00000  Uiso   1.00
O27    O     0.59227   0.82775   0.02123   0.00000  Uiso   1.00
C28    C     0.65909   0.86038   0.16702   0.00000  Uiso   1.00
C29    C     0.67839   0.78476   0.07004   0.00000  Uiso   1.00
C30    C     0.65934   0.91887   0.01830   0.00000  Uiso   1.00
C31    C     0.57781   0.75845   0.18928   0.00000  Uiso   1.00
C32    C     0.58257   0.90906   0.13655   0.00000  Uiso   1.00
C33    C     0.56834   0.81927   0.04263   0.00000  Uiso   1.00
O34    O     0.60120   0.91621   0.10648   0.00000  Uiso   1.00
O35    O     0.58185   0.87193   0.15150   0.00000  Uiso   1.00
O36    O     0.55422   0.77686   0.16257   0.00000  Uiso   1.00
O37    O     0.61474   0.76429   0.18846   0.00000  Uiso   1.00
O38    O     0.66178   0.83548   0.13058   0.00000  Uiso   1.00
O39    O     0.62826   0.85461   0.17994   0.00000  Uiso   1.00
Pr40   Pr    0.89841   0.16473   0.57086   0.00000  Uiso   1.00
Pr41   Pr    0.84864   0.12341   0.63114   0.00000  Uiso   1.00
O42    O     0.88871   0.16928   0.67768   0.00000  Uiso   1.00
O43    O     0.92423   0.19870   0.63303   0.00000  Uiso   1.00
O44    O     0.92434   0.21640   0.53796   0.00000  Uiso   1.00
O45    O     0.95206   0.15490   0.53753   0.00000  Uiso   1.00
O46    O     0.89588   0.10056   0.59511   0.00000  Uiso   1.00
O47    O     0.94966   0.13213   0.61238   0.00000  Uiso   1.00
C48    C     0.80673   0.17504   0.57907   0.00000  Uiso   1.00
C49    C     0.91430   0.19614   0.66931   0.00000  Uiso   1.00
C50    C     0.95284   0.19279   0.52754   0.00000  Uiso   1.00
C51    C     0.80727   0.08992   0.68351   0.00000  Uiso   1.00
C52    C     0.83476   0.09142   0.53061   0.00000  Uiso   1.00
C53    C     0.93256   0.10012   0.61623   0.00000  Uiso   1.00
O54    O     0.86144   0.11791   0.52398   0.00000  Uiso   1.00
O55    O     0.82389   0.08728   0.56681   0.00000  Uiso   1.00
O56    O     0.83518   0.06958   0.66770   0.00000  Uiso   1.00
O57    O     0.79952   0.12688   0.67122   0.00000  Uiso   1.00
O58    O     0.84329   0.18525   0.60088   0.00000  Uiso   1.00
O59    O     0.79677   0.13926   0.58364   0.00000  Uiso   1.00
Pr60   Pr    0.38538   0.41181   0.44803   0.00000  Uiso   1.00
Pr61   Pr    0.40523   0.32144   0.39761   0.00000  Uiso   1.00
O62    O     0.35340   0.30763   0.43313   0.00000  Uiso   1.00
O63    O     0.33357   0.37240   0.45790   0.00000  Uiso   1.00
O64    O     0.35446   0.47222   0.47387   0.00000  Uiso   1.00
O65    O     0.39425   0.43857   0.51500   0.00000  Uiso   1.00
O66    O     0.43201   0.36073   0.45362   0.00000  Uiso   1.00
O67    O     0.41525   0.38848   0.51019   0.00000  Uiso   1.00
C68    C     0.34613   0.37015   0.35553   0.00000  Uiso   1.00
C69    C     0.32862   0.33224   0.45020   0.00000  Uiso   1.00
C70    C     0.36919   0.46864   0.51100   0.00000  Uiso   1.00
C71    C     0.42546   0.28653   0.32526   0.00000  Uiso   1.00
C72    C     0.44901   0.42170   0.39635   0.00000  Uiso   1.00
C73    C     0.43469   0.35980   0.49512   0.00000  Uiso   1.00
O74    O     0.43888   0.43960   0.43026   0.00000  Uiso   1.00
O75    O     0.43564   0.38440   0.37903   0.00000  Uiso   1.00
O76    O     0.44794   0.31229   0.34949   0.00000  Uiso   1.00
O77    O     0.39146   0.28273   0.33595   0.00000  Uiso   1.00
O78    O     0.37901   0.38657   0.37922   0.00000  Uiso   1.00
O79    O     0.34678   0.33189   0.35450   0.00000  Uiso   1.00
C80    C     0.45072   0.77285   1.00545   0.00000  Uiso   1.00
C81    C     0.47565   0.77793   0.97552   0.00000  Uiso   1.00
C82    C     0.51499   0.79069   0.98720   0.00000  Uiso   1.00
C83    C     0.52990   0.79858   0.02896   0.00000  Uiso   1.00
C84    C     0.50549   0.79193   0.05866   0.00000  Uiso   1.00
C85    C     0.46646   0.77927   0.04713   0.00000  Uiso   1.00
C86    C     0.40804   0.76283   0.99385   0.00000  Uiso   1.00
C87    C     0.38897   0.73651   0.01708   0.00000  Uiso   1.00
C88    C     0.34842   0.72931   0.00821   0.00000  Uiso   1.00
C89    C     0.32584   0.74776   0.97550   0.00000  Uiso   1.00
C90    C     0.34490   0.77370   0.95189   0.00000  Uiso   1.00
C91    C     0.38552   0.78123   0.96101   0.00000  Uiso   1.00
C92    C     0.28294   0.73842   0.96514   0.00000  Uiso   1.00
C93    C     0.25566   0.76990   0.95153   0.00000  Uiso   1.00
C94    C     0.21579   0.75974   0.93921   0.00000  Uiso   1.00
C95    C     0.20263   0.71796   0.94033   0.00000  Uiso   1.00
C96    C     0.22951   0.68711   0.95543   0.00000  Uiso   1.00
C97    C     0.26915   0.69712   0.96760   0.00000  Uiso   1.00
H98    H     0.46459   0.77268   0.94314   0.00000  Uiso   1.00
H99    H     0.53315   0.79606   0.96371   0.00000  Uiso   1.00
H100   H     0.51606   0.79836   0.09105   0.00000  Uiso   1.00
H101   H     0.44816   0.77636   0.07108   0.00000  Uiso   1.00
H102   H     0.40541   0.72135   0.04224   0.00000  Uiso   1.00
H103   H     0.33470   0.70948   0.02727   0.00000  Uiso   1.00
H104   H     0.32851   0.78778   0.92603   0.00000  Uiso   1.00
H105   H     0.39911   0.80209   0.94278   0.00000  Uiso   1.00
H106   H     0.26525   0.80219   0.94986   0.00000  Uiso   1.00
H107   H     0.19568   0.78402   0.92735   0.00000  Uiso   1.00
H108   H     0.22026   0.65455   0.95618   0.00000  Uiso   1.00
H109   H     0.28929   0.67193  -0.02268   0.00000  Uiso   1.00
C110   C     0.46975   0.18667   0.24793   0.00000  Uiso   1.00
C111   C     0.49423   0.22145   0.26347   0.00000  Uiso   1.00
C112   C     0.47898   0.25697   0.28541   0.00000  Uiso   1.00
C113   C     0.43904   0.25813   0.29159   0.00000  Uiso   1.00
C114   C     0.41393   0.22541   0.27203   0.00000  Uiso   1.00
C115   C     0.42922   0.18980   0.25081   0.00000  Uiso   1.00
C116   C     0.48671   0.14546   0.23291   0.00000  Uiso   1.00
C117   C     0.51299   0.14335   0.20359   0.00000  Uiso   1.00
C118   C     0.52815   0.10391   0.18933   0.00000  Uiso   1.00
C119   C     0.51769   0.06606   0.20461   0.00000  Uiso   1.00
C120   C     0.49242   0.06844   0.23492   0.00000  Uiso   1.00
C121   C     0.47685   0.10773   0.24871   0.00000  Uiso   1.00
C122   C     0.53197   0.02414   0.18776   0.00000  Uiso   1.00
C123   C     0.54645   0.99265   0.21364   0.00000  Uiso   1.00
C124   C     0.56133   0.95383   0.19715   0.00000  Uiso   1.00
C125   C     0.56196   0.94625   0.15464   0.00000  Uiso   1.00
C126   C     0.54612   0.97712   0.12886   0.00000  Uiso   1.00
C127   C     0.53123   0.01555   0.14519   0.00000  Uiso   1.00
H128   H     0.52561   0.21965   0.26139   0.00000  Uiso   1.00
H129   H     0.49896   0.28181   0.30015   0.00000  Uiso   1.00
H130   H     0.38300   0.22553   0.27609   0.00000  Uiso   1.00
H131   H     0.40977   0.16353   0.23860   0.00000  Uiso   1.00
H132   H     0.52120   0.17205   0.19122   0.00000  Uiso   1.00
H133   H     0.54810   0.10296   0.16636   0.00000  Uiso   1.00
H134   H     0.48400   0.03983   0.24726   0.00000  Uiso   1.00
H135   H     0.45717   0.10873   0.27193   0.00000  Uiso   1.00
H136   H     0.54750   0.99869   0.24665   0.00000  Uiso   1.00
H137   H     0.57396   0.93073   0.21760   0.00000  Uiso   1.00
H138   H     0.54596   0.97182   0.09589   0.00000  Uiso   1.00
H139   H     0.51937   0.03876   0.12449   0.00000  Uiso   1.00
C140   C     0.70458   0.24722   0.54864   0.00000  Uiso   1.00
C141   C     0.73588   0.26604   0.57611   0.00000  Uiso   1.00
C142   C     0.77256   0.24514   0.58181   0.00000  Uiso   1.00
C143   C     0.77799   0.20515   0.56046   0.00000  Uiso   1.00
C144   C     0.74843   0.18917   0.52945   0.00000  Uiso   1.00
C145   C     0.71213   0.21021   0.52337   0.00000  Uiso   1.00
C146   C     0.66327   0.26239   0.54980   0.00000  Uiso   1.00
C147   C     0.63308   0.23244   0.54873   0.00000  Uiso   1.00
C148   C     0.59387   0.24562   0.54856   0.00000  Uiso   1.00
C149   C     0.58380   0.28912   0.54954   0.00000  Uiso   1.00
C150   C     0.61412   0.31933   0.55263   0.00000  Uiso   1.00
C151   C     0.65356   0.30609   0.55290   0.00000  Uiso   1.00
C152   C     0.54172   0.30245   0.54262   0.00000  Uiso   1.00
C153   C     0.52789   0.33945   0.56388   0.00000  Uiso   1.00
C154   C     0.49011   0.35573   0.55171   0.00000  Uiso   1.00
C155   C     0.46611   0.33559   0.51772   0.00000  Uiso   1.00
C156   C     0.47870   0.29697   0.49861   0.00000  Uiso   1.00
C157   C     0.51602   0.28037   0.51112   0.00000  Uiso   1.00
H158   H     0.73103   0.29470   0.59580   0.00000  Uiso   1.00
H159   H     0.79487   0.25772   0.60624   0.00000  Uiso   1.00
H160   H     0.75207   0.15832   0.51265   0.00000  Uiso   1.00
H161   H     0.68894   0.19576   0.50100   0.00000  Uiso   1.00
H162   H     0.63980   0.19860   0.54793   0.00000  Uiso   1.00
H163   H     0.57126   0.22168   0.54692   0.00000  Uiso   1.00
H164   H     0.60717   0.35310   0.55303   0.00000  Uiso   1.00
H165   H     0.67623   0.32989   0.55421   0.00000  Uiso   1.00
H166   H     0.54699   0.35692   0.58846   0.00000  Uiso   1.00
H167   H     0.48124   0.38609   0.56629   0.00000  Uiso   1.00
H168   H     0.46085   0.28133   0.47192   0.00000  Uiso   1.00
H169   H     0.52591   0.25207   0.49387   0.00000  Uiso   1.00
C170   C     0.75373   0.04541   0.78143   0.00000  Uiso   1.00
C171   C     0.78752   0.02510   0.76873   0.00000  Uiso   1.00
C172   C     0.80384   0.03843   0.73557   0.00000  Uiso   1.00
C173   C     0.78709   0.07292   0.71516   0.00000  Uiso   1.00
C174   C     0.75270   0.09268   0.72730   0.00000  Uiso   1.00
C175   C     0.73582   0.07862   0.75994   0.00000  Uiso   1.00
C176   C     0.73826   0.03270   0.81800   0.00000  Uiso   1.00
C177   C     0.69981   0.01713   0.81510   0.00000  Uiso   1.00
C178   C     0.68636   0.00227   0.84933   0.00000  Uiso   1.00
C179   C     0.71090   1.00361   0.88736   0.00000  Uiso   1.00
C180   C     0.74892   1.02100   0.89030   0.00000  Uiso   1.00
C181   C     0.76261   1.03485   0.85585   0.00000  Uiso   1.00
C182   C     0.69776   0.98505   0.92313   0.00000  Uiso   1.00
C183   C     0.72517   0.96482   0.95101   0.00000  Uiso   1.00
C184   C     0.71277   0.94510   0.98313   0.00000  Uiso   1.00
C185   C     0.67261   0.94415   0.98753   0.00000  Uiso   1.00
C186   C     0.64514   0.96486   0.96040   0.00000  Uiso   1.00
C187   C     0.65763   0.98558   0.92883   0.00000  Uiso   1.00
H188   H     0.80146   0.99913   0.78476   0.00000  Uiso   1.00
H189   H     0.83036   0.02271   0.72684   0.00000  Uiso   1.00
H190   H     0.73930   0.11938   0.71202   0.00000  Uiso   1.00
H191   H     0.70961   0.09451   0.76930   0.00000  Uiso   1.00
H192   H     0.68073   0.01510   0.78599   0.00000  Uiso   1.00
H193   H     0.65721  -0.01151   0.84549   0.00000  Uiso   1.00
H194   H     0.76833   1.02371   0.91916   0.00000  Uiso   1.00
H195   H     0.79229   1.04725   0.85869   0.00000  Uiso   1.00
H196   H     0.75614   0.96270   0.94724   0.00000  Uiso   1.00
H197   H     0.73443   0.92891   1.00346   0.00000  Uiso   1.00
H198   H     0.61395   0.96465   0.96336   0.00000  Uiso   1.00
H199   H     0.63573   0.00158   0.90868   0.00000  Uiso   1.00
C200   C     0.78834   0.01926   0.41836   0.00000  Uiso   1.00
C201   C     0.79964   0.99835   0.45416   0.00000  Uiso   1.00
C202   C     0.81248   0.02183   0.49178   0.00000  Uiso   1.00
C203   C     0.81484   0.06643   0.49396   0.00000  Uiso   1.00
C204   C     0.80206   0.08736   0.45888   0.00000  Uiso   1.00
C205   C     0.78849   0.06416   0.42171   0.00000  Uiso   1.00
C206   C     0.77712   0.99488   0.37748   0.00000  Uiso   1.00
C207   C     0.78569   0.01110   0.34125   0.00000  Uiso   1.00
C208   C     0.77278  -0.00996   0.30266   0.00000  Uiso   1.00
C209   C     0.75212   0.95170   0.29949   0.00000  Uiso   1.00
C210   C     0.74491   0.93434   0.33536   0.00000  Uiso   1.00
C211   C     0.75703   0.95584   0.37399   0.00000  Uiso   1.00
C212   C     0.73418   0.93209   0.25909   0.00000  Uiso   1.00
C213   C     0.74637   0.89155   0.24360   0.00000  Uiso   1.00
C214   C     0.72433   0.86990   0.20919   0.00000  Uiso   1.00
C215   C     0.68944   0.88822   0.19076   0.00000  Uiso   1.00
C216   C     0.67872   0.92979   0.20479   0.00000  Uiso   1.00
C217   C     0.70124   0.95181   0.23842   0.00000  Uiso   1.00
H218   H     0.80008   0.96384   0.45287   0.00000  Uiso   1.00
H219   H     0.82251   1.00512   0.51854   0.00000  Uiso   1.00
H220   H     0.80328   0.12185   0.46009   0.00000  Uiso   1.00
H221   H     0.77863   0.08157   0.39542   0.00000  Uiso   1.00
H222   H     0.80215   0.04031   0.34259   0.00000  Uiso   1.00
H223   H     0.77852   0.00387   0.27524   0.00000  Uiso   1.00
H224   H     0.72846   0.90499   0.33335   0.00000  Uiso   1.00
H225   H     0.74947   0.94255   0.40096   0.00000  Uiso   1.00
H226   H     0.77163   0.87582   0.25943   0.00000  Uiso   1.00
H227   H     0.73237   0.83736   0.19950   0.00000  Uiso   1.00
H228   H     0.65140   0.94402   0.19161   0.00000  Uiso   1.00
H229   H     0.69121   0.98289   0.25025   0.00000  Uiso   1.00
C230   C     0.32057   0.52402   0.61700   0.00000  Uiso   1.00
C231   C     0.30472   0.53495   0.57770   0.00000  Uiso   1.00
C232   C     0.32211   0.51950   0.54302   0.00000  Uiso   1.00
C233   C     0.35575   0.49312   0.54714   0.00000  Uiso   1.00
C234   C     0.37294   0.48448   0.58670   0.00000  Uiso   1.00
C235   C     0.35548   0.49964   0.62122   0.00000  Uiso   1.00
C236   C     0.29935   0.53549   0.65297   0.00000  Uiso   1.00
C237   C     0.29461   0.50510   0.68056   0.00000  Uiso   1.00
C238   C     0.27243   0.51490   0.71298   0.00000  Uiso   1.00
C239   C     0.25450   0.55521   0.71837   0.00000  Uiso   1.00
C240   C     0.26010   0.58591   0.69139   0.00000  Uiso   1.00
C241   C     0.28219   0.57611   0.65899   0.00000  Uiso   1.00
C242   C     0.22825   0.56477   0.75050   0.00000  Uiso   1.00
C243   C     0.19219   0.58584   0.74065   0.00000  Uiso   1.00
C244   C     0.16791   0.59718   0.77066   0.00000  Uiso   1.00
C245   C     0.17909   0.58801   0.81156   0.00000  Uiso   1.00
C246   C     0.21439   0.56524   0.82124   0.00000  Uiso   1.00
C247   C     0.23876   0.55358   0.79087   0.00000  Uiso   1.00
H248   H     0.27764   0.55344   0.57354   0.00000  Uiso   1.00
H249   H     0.30795   0.52618   0.51289   0.00000  Uiso   1.00
H250   H     0.39880   0.46404   0.59084   0.00000  Uiso   1.00
H251   H     0.36862   0.49121   0.65115   0.00000  Uiso   1.00
H252   H     0.30688   0.47322   0.67620   0.00000  Uiso   1.00
H253   H     0.26806   0.49048   0.73289   0.00000  Uiso   1.00
H254   H     0.24707   0.61750   0.69517   0.00000  Uiso   1.00
H255   H     0.28572   0.60024   0.63848   0.00000  Uiso   1.00
H256   H     0.18284   0.59388   0.70961   0.00000  Uiso   1.00
H257   H     0.14066   0.61413   0.76184   0.00000  Uiso   1.00
H258   H     0.22380   0.55780   0.85245   0.00000  Uiso   1.00
H259   H     0.26638   0.53713   0.79922   0.00000  Uiso   1.00
C260   C     0.22578   0.48958   0.09645   0.00000  Uiso   1.00
C261   C     0.18982   0.47557   0.07384   0.00000  Uiso   1.00
C262   C     0.17440   0.49453   1.03834   0.00000  Uiso   1.00
C263   C     0.19503   0.52725   1.02446   0.00000  Uiso   1.00
C264   C     0.23218   0.53925   0.04557   0.00000  Uiso   1.00
C265   C     0.24721   0.52091   0.08146   0.00000  Uiso   1.00
C266   C     0.23971   0.47374   0.13689   0.00000  Uiso   1.00
C267   C     0.25138   0.50278   0.17125   0.00000  Uiso   1.00
C268   C     0.26426   0.48830   0.20960   0.00000  Uiso   1.00
C269   C     0.26631   0.44432   0.21441   0.00000  Uiso   1.00
C270   C     0.25440   0.41529   0.17991   0.00000  Uiso   1.00
C271   C     0.24095   0.42986   0.14166   0.00000  Uiso   1.00
C272   C     0.28267   0.42868   0.25460   0.00000  Uiso   1.00
C273   C     0.26836   0.39115   0.26730   0.00000  Uiso   1.00
C274   C     0.28716   0.37361   0.30229   0.00000  Uiso   1.00
C275   C     0.32032   0.39351   0.32558   0.00000  Uiso   1.00
C276   C     0.33299   0.43246   0.31470   0.00000  Uiso   1.00
C277   C     0.31456   0.44971   0.27944   0.00000  Uiso   1.00
H278   H     0.17263   0.45159   0.08479   0.00000  Uiso   1.00
H279   H     0.14558   0.48490   1.02275   0.00000  Uiso   1.00
H280   H     0.24857   0.56463   0.03578   0.00000  Uiso   1.00
H281   H     0.27513   0.53205   0.09819   0.00000  Uiso   1.00
H282   H     0.25006   0.53684   0.16854   0.00000  Uiso   1.00
H283   H     0.27245   0.51164   0.23552   0.00000  Uiso   1.00
H284   H     0.25639   0.38120   0.18215   0.00000  Uiso   1.00
H285   H     0.23238   0.40680   0.11558   0.00000  Uiso   1.00
H286   H     0.24335   0.37457   0.24950   0.00000  Uiso   1.00
H287   H     0.27694   0.34345   0.31008   0.00000  Uiso   1.00
H288   H     0.35893   0.44805   0.33175   0.00000  Uiso   1.00
H289   H     0.32682   0.47825   0.27043   0.00000  Uiso   1.00
C290   C     0.21543   0.28482   0.46734   0.00000  Uiso   1.00
C291   C     0.22680   0.32662   0.48223   0.00000  Uiso   1.00
C292   C     0.26433   0.34113   0.47858   0.00000  Uiso   1.00
C293   C     0.29140   0.31431   0.45958   0.00000  Uiso   1.00
C294   C     0.28058   0.27190   0.44605   0.00000  Uiso   1.00
C295   C     0.24295   0.25727   0.44998   0.00000  Uiso   1.00
C296   C     0.17480   0.27049   0.46968   0.00000  Uiso   1.00
C297   C     0.16836   0.23060   0.48318   0.00000  Uiso   1.00
C298   C     0.13021   0.21816   0.48737   0.00000  Uiso   1.00
C299   C     0.09755   0.24515   0.47774   0.00000  Uiso   1.00
C300   C     0.10397   0.28465   0.46331   0.00000  Uiso   1.00
C301   C     0.14218   0.29720   0.45939   0.00000  Uiso   1.00
C302   C     0.05738   0.23265   0.48456   0.00000  Uiso   1.00
C303   C     0.03117   0.26277   0.50086   0.00000  Uiso   1.00
C304   C    -0.00429   0.24952   0.51261   0.00000  Uiso   1.00
C305   C     0.98599   0.20781   0.50839   0.00000  Uiso   1.00
C306   C     0.01050   0.17744   0.48985   0.00000  Uiso   1.00
C307   C     0.04583   0.18975   0.47780   0.00000  Uiso   1.00
H308   H     0.20647   0.34825   0.49650   0.00000  Uiso   1.00
H309   H     0.27170   0.37387   0.48973   0.00000  Uiso   1.00
H310   H     0.30065   0.25045   0.43121   0.00000  Uiso   1.00
H311   H     0.23491   0.22487   0.43819   0.00000  Uiso   1.00
H312   H     0.19297   0.20956   0.49167   0.00000  Uiso   1.00
H313   H     0.12648   0.18787   0.49935   0.00000  Uiso   1.00
H314   H     0.07947   0.30586   0.45500   0.00000  Uiso   1.00
H315   H     0.14625   0.32781   0.44816   0.00000  Uiso   1.00
H316   H     0.03909   0.29614   0.50692   0.00000  Uiso   1.00
H317   H     0.97740   0.27314   0.52741   0.00000  Uiso   1.00
H318   H     0.00301   0.14388   0.48603   0.00000  Uiso   1.00
H319   H     0.06451   0.16559   0.46437   0.00000  Uiso   1.00
C320   C     0.97867  -0.00911   0.67649   0.00000  Uiso   1.00
C321   C     0.93863  -0.00624   0.66029   0.00000  Uiso   1.00
C322   C     0.92405   0.02954   0.64117   0.00000  Uiso   1.00
C323   C     0.94887   0.06380   0.63839   0.00000  Uiso   1.00
C324   C     0.98876   0.06166   0.65512   0.00000  Uiso   1.00
C325   C     1.00358   0.02540   0.67389   0.00000  Uiso   1.00
C326   C     0.99398   0.95188   0.69579   0.00000  Uiso   1.00
C327   C     0.02250   0.95480   0.73084   0.00000  Uiso   1.00
C328   C     0.03537   0.91822   0.74991   0.00000  Uiso   1.00
C329   C     0.01996   0.87787   0.73449   0.00000  Uiso   1.00
C330   C     0.99204   0.87481   0.69903   0.00000  Uiso   1.00
C331   C     0.97934   0.91132   0.67983   0.00000  Uiso   1.00
C332   C     0.03251   0.83934   0.75586   0.00000  Uiso   1.00
C333   C     1.00473   0.80888   0.76185   0.00000  Uiso   1.00
C334   C     0.01639   0.77399   0.78418   0.00000  Uiso   1.00
C335   C     0.05602   0.76896   0.80090   0.00000  Uiso   1.00
C336   C     0.08389   0.79873   0.79393   0.00000  Uiso   1.00
C337   C     0.07230   0.83343   0.77160   0.00000  Uiso   1.00
H338   H     0.91837  -0.03167   0.66246   0.00000  Uiso   1.00
H339   H     0.89323   0.03017   0.62822   0.00000  Uiso   1.00
H340   H     1.00856   0.08754   0.65297   0.00000  Uiso   1.00
H341   H     0.03468   0.02399   0.68556   0.00000  Uiso   1.00
H342   H     0.03414   0.98549   0.74422   0.00000  Uiso   1.00
H343   H     0.05669   0.92169   0.77741   0.00000  Uiso   1.00
H344   H     0.98024   0.84410   0.68592   0.00000  Uiso   1.00
H345   H     0.95810   0.90773   0.65228   0.00000  Uiso   1.00
H346   H     0.97381   0.81269   0.75028   0.00000  Uiso   1.00
H347   H     0.99431   0.75157   0.78920   0.00000  Uiso   1.00
H348   H     0.11475   0.79536   0.80602   0.00000  Uiso   1.00
H349   H     0.09451   0.85575   0.76667   0.00000  Uiso   1.00
C350   C     0.01496   0.47490   0.81027   0.00000  Uiso   1.00
C351   C    -0.00204   0.50403   0.83823   0.00000  Uiso   1.00
C352   C     0.01984   0.53871   0.85911   0.00000  Uiso   1.00
C353   C     0.05914   0.54417   0.85273   0.00000  Uiso   1.00
C354   C     0.07511   0.51677   0.82295   0.00000  Uiso   1.00
C355   C     0.05328   0.48268   0.80187   0.00000  Uiso   1.00
C356   C    -0.00509   0.43452   0.79227   0.00000  Uiso   1.00
C357   C    -0.00169   0.41879   0.75158   0.00000  Uiso   1.00
C358   C    -0.01475   0.37792   0.73631   0.00000  Uiso   1.00
C359   C     0.96830   0.35158   0.76122   0.00000  Uiso   1.00
C360   C     0.96278   0.36805   0.80122   0.00000  Uiso   1.00
C361   C     0.97609   0.40912   0.81667   0.00000  Uiso   1.00
C362   C     0.95735   0.30701   0.74498   0.00000  Uiso   1.00
C363   C     0.92113   0.28941   0.75055   0.00000  Uiso   1.00
C364   C     0.90855   0.25028   0.72911   0.00000  Uiso   1.00
C365   C     0.93194   0.22845   0.70172   0.00000  Uiso   1.00
C366   C     0.96954   0.24423   0.69917   0.00000  Uiso   1.00
C367   C     0.98217   0.28288   0.72070   0.00000  Uiso   1.00
H368   H    -0.03168   0.49909   0.84495   0.00000  Uiso   1.00
H369   H     0.00714   0.55920   0.88234   0.00000  Uiso   1.00
H370   H     0.10549   0.52020   0.81776   0.00000  Uiso   1.00
H371   H     0.06750   0.46077   0.78093   0.00000  Uiso   1.00
H372   H     0.01201   0.43776   0.73175   0.00000  Uiso   1.00
H373   H    -0.01109   0.36667   0.70496   0.00000  Uiso   1.00
H374   H     0.94971   0.34856   0.82109   0.00000  Uiso   1.00
H375   H     0.97340   0.42013   0.84831   0.00000  Uiso   1.00
H376   H     0.90140   0.30720   0.76913   0.00000  Uiso   1.00
H377   H     0.87922   0.23905   0.73125   0.00000  Uiso   1.00
H378   H     0.98822   0.22796   0.67842   0.00000  Uiso   1.00
H379   H     1.01072   0.29497   0.71672   0.00000  Uiso   1.00
C380   C     0.78838   0.72721   0.04435   0.00000  Uiso   1.00
C381   C     0.75800   0.73418   0.01232   0.00000  Uiso   1.00
C382   C     0.72129   0.75014   0.02087   0.00000  Uiso   1.00
C383   C     0.71371   0.75908   0.06163   0.00000  Uiso   1.00
C384   C     0.74270   0.74879   0.09368   0.00000  Uiso   1.00
C385   C     0.77979   0.73314   0.08512   0.00000  Uiso   1.00
C386   C     0.82944   0.71782   0.03505   0.00000  Uiso   1.00
C387   C     0.84362   0.73759   0.00350   0.00000  Uiso   1.00
C388   C     0.88209   0.73030   0.99470   0.00000  Uiso   1.00
C389   C     0.90791   0.70337   1.01737   0.00000  Uiso   1.00
C390   C     0.89395   0.68319   1.04887   0.00000  Uiso   1.00
C391   C     0.85518   0.69063   1.05784   0.00000  Uiso   1.00
C392   C     0.94876   0.69617   1.00694   0.00000  Uiso   1.00
C393   C     0.96586   0.65510   1.00499   0.00000  Uiso   1.00
C394   C     1.00175   0.64769   0.98917   0.00000  Uiso   1.00
C395   C     0.02110   0.68117   0.97485   0.00000  Uiso   1.00
C396   C     0.00531   0.72267   0.97943   0.00000  Uiso   1.00
C397   C     0.96970   0.73009   0.99539   0.00000  Uiso   1.00
H398   H     0.76303   0.72881  -0.01950   0.00000  Uiso   1.00
H399   H     0.69928   0.75730  -0.00447   0.00000  Uiso   1.00
H400   H     0.73765   0.75552   0.12541   0.00000  Uiso   1.00
H401   H     0.80245   0.72819   0.11054   0.00000  Uiso   1.00
H402   H     0.82518   0.75947  -0.01417   0.00000  Uiso   1.00
H403   H     0.89151   0.74558   0.96965   0.00000  Uiso   1.00
H404   H     0.91309   0.66211   1.06683   0.00000  Uiso   1.00
H405   H     0.84535   0.67488   1.08240   0.00000  Uiso   1.00
H406   H     0.95053   0.62832   1.01366   0.00000  Uiso   1.00
H407   H     1.01332   0.61538   0.98634   0.00000  Uiso   1.00
H408   H     0.01983   0.74930   0.96940   0.00000  Uiso   1.00
H409   H     0.95794   0.76233   0.99754   0.00000  Uiso   1.00
C410   C     0.54302   0.66161   0.25910   0.00000  Uiso   1.00
C411   C     0.57814   0.68406   0.27249   0.00000  Uiso   1.00
C412   C     0.58868   0.71733   0.25100   0.00000  Uiso   1.00
C413   C     0.56380   0.72919   0.21641   0.00000  Uiso   1.00
C414   C     0.52753   0.70837   0.20461   0.00000  Uiso   1.00
C415   C     0.51746   0.67448   0.22548   0.00000  Uiso   1.00
C416   C     0.53410   0.62332   0.27862   0.00000  Uiso   1.00
C417   C     0.52712   0.58420   0.25474   0.00000  Uiso   1.00
C418   C     0.51867   0.54776   0.27292   0.00000  Uiso   1.00
C419   C     0.51619   0.54991   0.31531   0.00000  Uiso   1.00
C420   C     0.52346   0.58931   0.33912   0.00000  Uiso   1.00
C421   C     0.53279   0.62549   0.32101   0.00000  Uiso   1.00
C422   C     0.50402   0.51205   0.33436   0.00000  Uiso   1.00
C423   C     0.51754   0.50655   0.37575   0.00000  Uiso   1.00
C424   C     0.50143   0.47510   0.39546   0.00000  Uiso   1.00
C425   C     0.47245   0.44758   0.37386   0.00000  Uiso   1.00
C426   C     0.46122   0.45053   0.33178   0.00000  Uiso   1.00
C427   C     0.47647   0.48279   0.31230   0.00000  Uiso   1.00
H428   H     0.59826   0.67448   0.29831   0.00000  Uiso   1.00
H429   H     0.61684   0.73284   0.26058   0.00000  Uiso   1.00
H430   H     0.50801   0.71664   0.17780   0.00000  Uiso   1.00
H431   H     0.49014   0.65759   0.21485   0.00000  Uiso   1.00
H432   H     0.52861   0.58181   0.22200   0.00000  Uiso   1.00
H433   H     0.51411   0.51795   0.25370   0.00000  Uiso   1.00
H434   H     0.52091   0.59267   0.37161   0.00000  Uiso   1.00
H435   H     0.53799   0.65546   0.33993   0.00000  Uiso   1.00
H436   H     0.53961   0.52747   0.39343   0.00000  Uiso   1.00
H437   H     0.51051   0.47331   0.42800   0.00000  Uiso   1.00
H438   H     0.43838   0.43005   0.31473   0.00000  Uiso   1.00
H439   H     0.46481   0.48623   0.28063   0.00000  Uiso   1.00
loop_
_geom_bond_atom_site_label_1
_geom_bond_atom_site_label_2
_geom_bond_distance
_geom_bond_site_symmetry_2
_ccdc_geom_bond_type
Pr0    O3      2.234   .     S
Pr0    O4      2.300   .     S
Pr0    O5      2.276   .     S
Pr0    O6      2.240   .     S
Pr0    O7      2.355   .     S
Pr0    O14     2.243   .     S
Pr0    O18     2.352   .     S
Pr1    O2      2.392   .     S
Pr1    O6      2.217   .     S
Pr1    O15     2.421   .     S
Pr1    O16     2.261   .     S
Pr1    O17     2.255   .     S
Pr1    O18     2.322   .     S
Pr1    O19     2.293   .     S
O2     C9      1.301   .     A
O3     C9      1.271   .     A
O4     C10     1.273   .     A
O5     C10     1.267   .     A
O6     C13     1.355   .     S
O7     C13     1.209   .     D
C8     O18     1.385   .     S
C8     O19     1.212   .     D
C8     C353    1.472   .     S
C9     C395    1.483   .     S
C10    C335    1.479   .     S
C11    O16     1.285   .     A
C11    O17     1.283   .     A
C11    C263    1.477   .     S
C12    O14     1.289   .     A
C12    O15     1.316   .     A
C12    C245    1.482   .     S
C13    C95     1.475   .     S
Pr20   O23     2.224   .     S
Pr20   O24     2.274   .     S
Pr20   O26     2.271   .     S
Pr20   O27     2.362   .     S
Pr20   O34     2.244   .     S
Pr20   O38     2.345   .     S
Pr20   O25     2.272   1_554 S
Pr21   O22     2.415   .     S
Pr21   O26     2.226   .     S
Pr21   O35     2.413   .     S
Pr21   O36     2.257   .     S
Pr21   O37     2.254   .     S
Pr21   O38     2.293   .     S
Pr21   O39     2.296   .     S
O22    C29     1.307   .     A
O23    C29     1.270   .     A
O24    C30     1.274   .     A
O25    Pr20    2.272   1_556 S
O25    C30     1.272   1_556 A
O26    C33     1.346   .     S
O27    C33     1.200   .     D
C28    O38     1.382   .     S
C28    O39     1.212   .     D
C28    C215    1.464   .     S
C29    C383    1.480   .     S
C30    O25     1.272   1_554 A
C30    C185    1.471   1_554 S
C31    O36     1.284   .     A
C31    O37     1.283   .     A
C31    C413    1.473   .     S
C32    O34     1.288   .     A
C32    O35     1.313   .     A
C32    C125    1.471   .     S
C33    C83     1.474   .     S
Pr40   O43     2.293   .     S
Pr40   O44     2.294   .     S
Pr40   O45     2.262   .     S
Pr40   O46     2.249   .     S
Pr40   O47     2.355   .     S
Pr40   O54     2.296   .     S
Pr40   O58     2.295   .     S
Pr41   O42     2.325   .     S
Pr41   O46     2.199   .     S
Pr41   O55     2.367   .     S
Pr41   O56     2.261   .     S
Pr41   O57     2.266   .     S
Pr41   O58     2.264   .     S
Pr41   O59     2.283   .     S
O42    C49     1.302   .     A
O43    C49     1.297   .     A
O44    C50     1.276   .     A
O45    C50     1.269   .     A
O46    C53     1.350   .     S
O47    C53     1.200   .     D
C48    O58     1.383   .     S
C48    O59     1.212   .     D
C48    C143    1.466   .     S
C49    C365    1.477   .     S
C50    C305    1.476   .     S
C51    O56     1.279   .     A
C51    O57     1.279   .     A
C51    C173    1.472   .     S
C52    O54     1.302   .     A
C52    O55     1.316   .     A
C52    C203    1.470   .     S
C53    C323    1.475   .     S
Pr60   O63     2.259   .     S
Pr60   O64     2.302   .     S
Pr60   O65     2.270   .     S
Pr60   O66     2.242   .     S
Pr60   O67     2.341   .     S
Pr60   O74     2.215   .     S
Pr60   O78     2.315   .     S
Pr61   O62     2.321   .     S
Pr61   O66     2.221   .     S
Pr61   O75     2.423   .     S
Pr61   O76     2.291   .     S
Pr61   O77     2.265   .     S
Pr61   O78     2.321   .     S
Pr61   O79     2.328   .     S
O62    C69     1.284   .     A
O63    C69     1.275   .     A
O64    C70     1.275   .     A
O65    C70     1.267   .     A
O66    C73     1.363   .     S
O67    C73     1.216   .     D
C68    O78     1.361   .     S
C68    O79     1.201   .     D
C68    C275    1.474   .     S
C69    C293    1.484   .     S
C70    C233    1.476   .     S
C71    O76     1.274   .     A
C71    O77     1.270   .     A
C71    C113    1.475   .     S
C72    O74     1.289   .     A
C72    O75     1.318   .     A
C72    C425    1.469   .     S
C73    C155    1.466   .     S
C80    C81     1.410   .     A
C80    C86     1.489   .     S
C80    C85     1.405   1_556 A
C81    C82     1.404   .     A
C81    H98     1.082   .     S
C82    H99     1.083   .     S
C82    C83     1.403   1_556 A
C83    C84     1.402   .     A
C83    C82     1.403   1_554 A
C84    C85     1.393   .     A
C84    H100    1.082   .     S
C85    H101    1.083   .     S
C85    C80     1.405   1_554 A
C86    C91     1.407   .     A
C86    C87     1.406   1_556 A
C87    C88     1.396   .     A
C87    H102    1.082   .     S
C87    C86     1.406   1_554 A
C88    H103    1.082   .     S
C88    C89     1.405   1_554 A
C89    C90     1.406   .     A
C89    C92     1.489   .     S
C89    C88     1.405   1_556 A
C90    C91     1.400   .     A
C90    H104    1.083   .     S
C91    H105    1.082   .     S
C92    C93     1.409   .     A
C92    C97     1.405   .     A
C93    C94     1.403   .     A
C93    H106    1.083   .     S
C94    C95     1.404   .     A
C94    H107    1.083   .     S
C95    C96     1.403   .     A
C96    C97     1.394   .     A
C96    H108    1.082   .     S
C97    H109    1.083   1_556 S
H109   C97     1.083   1_554 S
C110   C111    1.405   .     A
C110   C115    1.402   .     A
C110   C116    1.478   .     S
C111   C112    1.402   .     A
C111   H128    1.083   .     S
C112   C113    1.406   .     A
C112   H129    1.083   .     S
C113   C114    1.405   .     A
C114   C115    1.393   .     A
C114   H130    1.083   .     S
C115   H131    1.084   .     S
C116   C117    1.402   .     A
C116   C121    1.406   .     A
C117   C118    1.398   .     A
C117   H132    1.083   .     S
C118   C119    1.408   .     A
C118   H133    1.083   .     S
C119   C120    1.402   .     A
C119   C122    1.480   .     S
C120   C121    1.395   .     A
C120   H134    1.083   .     S
C121   H135    1.083   .     S
C122   C127    1.401   .     A
C122   C123    1.409   1_545 A
C123   C124    1.402   .     A
C123   H136    1.083   .     S
C123   C122    1.409   1_565 A
C124   C125    1.402   .     A
C124   H137    1.083   .     S
C125   C126    1.405   .     A
C126   H138    1.084   .     S
C126   C127    1.390   1_565 A
C127   H139    1.083   .     S
C127   C126    1.390   1_545 A
C140   C141    1.407   .     A
C140   C145    1.405   .     A
C140   C146    1.485   .     S
C141   C142    1.401   .     A
C141   H158    1.083   .     S
C142   C143    1.403   .     A
C142   H159    1.083   .     S
C143   C144    1.402   .     A
C144   C145    1.393   .     A
C144   H160    1.084   .     S
C145   H161    1.083   .     S
C146   C147    1.407   .     A
C146   C151    1.405   .     A
C147   C148    1.394   .     A
C147   H162    1.083   .     S
C148   C149    1.402   .     A
C148   H163    1.083   .     S
C149   C150    1.408   .     A
C149   C152    1.484   .     S
C150   C151    1.401   .     A
C150   H164    1.083   .     S
C151   H165    1.083   .     S
C152   C153    1.407   .     A
C152   C157    1.405   .     A
C153   C154    1.401   .     A
C153   H166    1.083   .     S
C154   C155    1.404   .     A
C154   H167    1.083   .     S
C155   C156    1.400   .     A
C156   C157    1.393   .     A
C156   H168    1.084   .     S
C157   H169    1.083   .     S
C170   C171    1.402   .     A
C170   C175    1.403   .     A
C170   C176    1.472   .     S
C171   C172    1.394   .     A
C171   H188    1.083   1_545 S
C172   C173    1.404   .     A
C172   H189    1.083   .     S
C173   C174    1.405   .     A
C174   C175    1.399   .     A
C174   H190    1.083   .     S
C175   H191    1.083   .     S
C176   C177    1.400   .     A
C176   C181    1.401   1_545 A
C177   C178    1.398   .     A
C177   H192    1.083   .     S
C178   H193    1.082   .     S
C178   C179    1.410   1_545 A
C179   C180    1.408   .     A
C179   C182    1.490   .     S
C179   C178    1.410   1_565 A
C180   C181    1.395   .     A
C180   H194    1.082   .     S
C181   H195    1.083   .     S
C181   C176    1.401   1_565 A
C182   C183    1.409   .     A
C182   C187    1.408   .     A
C183   C184    1.395   .     A
C183   H196    1.082   .     S
C184   C185    1.400   .     A
C184   H197    1.083   .     S
C185   C186    1.403   .     A
C185   C30     1.471   1_556 S
C186   C187    1.398   .     A
C186   H198    1.083   .     S
C187   H199    1.082   1_565 S
H188   C171    1.083   1_565 S
H199   C187    1.082   1_545 S
C200   C205    1.406   .     A
C200   C201    1.412   1_545 A
C200   C206    1.493   1_545 S
C201   H218    1.082   .     S
C201   C200    1.412   1_565 A
C201   C202    1.403   1_565 A
C202   C203    1.401   .     A
C202   C201    1.403   1_545 A
C202   H219    1.083   1_545 S
C203   C204    1.401   .     A
C204   C205    1.393   .     A
C204   H220    1.084   .     S
C205   H221    1.082   .     S
C206   C211    1.407   .     A
C206   C200    1.493   1_565 S
C206   C207    1.411   1_565 A
C207   C208    1.398   .     A
C207   H222    1.082   .     S
C207   C206    1.411   1_545 A
C208   H223    1.083   .     S
C208   C209    1.399   1_545 A
C209   C210    1.403   .     A
C209   C212    1.473   .     S
C209   C208    1.399   1_565 A
C210   C211    1.399   .     A
C210   H224    1.083   .     S
C211   H225    1.082   .     S
C212   C213    1.404   .     A
C212   C217    1.401   .     A
C213   C214    1.401   .     A
C213   H226    1.083   .     S
C214   C215    1.402   .     A
C214   H227    1.083   .     S
C215   C216    1.403   .     A
C216   C217    1.395   .     A
C216   H228    1.083   .     S
C217   H229    1.083   .     S
H219   C202    1.083   1_565 S
C230   C231    1.408   .     A
C230   C235    1.403   .     A
C230   C236    1.483   .     S
C231   C232    1.400   .     A
C231   H248    1.083   .     S
C232   C233    1.403   .     A
C232   H249    1.083   .     S
C233   C234    1.406   .     A
C234   C235    1.395   .     A
C234   H250    1.083   .     S
C235   H251    1.083   .     S
C236   C237    1.408   .     A
C236   C241    1.403   .     A
C237   C238    1.399   .     A
C237   H252    1.083   .     S
C238   C239    1.403   .     A
C238   H253    1.083   .     S
C239   C240    1.407   .     A
C239   C242    1.483   .     S
C240   C241    1.396   .     A
C240   H254    1.083   .     S
C241   H255    1.083   .     S
C242   C243    1.401   .     A
C242   C247    1.408   .     A
C243   C244    1.391   .     A
C243   H256    1.083   .     S
C244   C245    1.408   .     A
C244   H257    1.083   .     S
C245   C246    1.405   .     A
C246   C247    1.404   .     A
C246   H258    1.083   .     S
C247   H259    1.083   .     S
C260   C261    1.405   .     A
C260   C265    1.405   .     A
C260   C266    1.484   .     S
C261   H278    1.083   .     S
C261   C262    1.400   1_554 A
C262   C263    1.405   .     A
C262   H279    1.083   .     S
C262   C261    1.400   1_556 A
C263   C264    1.404   1_556 A
C264   C265    1.398   .     A
C264   H280    1.083   .     S
C264   C263    1.404   1_554 A
C265   H281    1.083   .     S
C266   C267    1.405   .     A
C266   C271    1.403   .     A
C267   C268    1.398   .     A
C267   H282    1.083   .     S
C268   C269    1.407   .     A
C268   H283    1.083   .     S
C269   C270    1.409   .     A
C269   C272    1.492   .     S
C270   C271    1.400   .     A
C270   H284    1.082   .     S
C271   H285    1.083   .     S
C272   C273    1.408   .     A
C272   C277    1.408   .     A
C273   C274    1.399   .     A
C273   H286    1.082   .     S
C274   C275    1.404   .     A
C274   H287    1.083   .     S
C275   C276    1.402   .     A
C276   C277    1.398   .     A
C276   H288    1.084   .     S
C277   H289    1.082   .     S
C290   C291    1.403   .     A
C290   C295    1.406   .     A
C290   C296    1.483   .     S
C291   C292    1.395   .     A
C291   H308    1.083   .     S
C292   C293    1.407   .     A
C292   H309    1.083   .     S
C293   C294    1.406   .     A
C294   C295    1.401   .     A
C294   H310    1.083   .     S
C295   H311    1.083   .     S
C296   C297    1.403   .     A
C296   C301    1.406   .     A
C297   C298    1.397   .     A
C297   H312    1.083   .     S
C298   C299    1.408   .     A
C298   H313    1.082   .     S
C299   C300    1.405   .     A
C299   C302    1.487   .     S
C300   C301    1.398   .     A
C300   H314    1.083   .     S
C301   H315    1.083   .     S
C302   C303    1.409   .     A
C302   C307    1.403   .     A
C303   C304    1.404   .     A
C303   H316    1.082   .     S
C304   C305    1.350   1_455 D
C304   H317    1.084   1_455 S
C305   C304    1.350   1_655 D
C305   C306    1.407   1_655 A
C306   C307    1.394   .     A
C306   H318    1.083   .     S
C306   C305    1.407   1_455 A
C307   H319    1.083   .     S
H317   C304    1.084   1_655 S
C320   C321    1.405   .     A
C320   C325    1.410   .     A
C320   C326    1.490   1_545 S
C321   C322    1.394   .     A
C321   H338    1.083   .     S
C322   C323    1.403   .     A
C322   H339    1.083   .     S
C323   C324    1.403   .     A
C324   C325    1.403   .     A
C324   H340    1.083   .     S
C325   H341    1.082   1_655 S
C326   C331    1.408   .     A
C326   C320    1.490   1_565 S
C326   C327    1.406   1_655 A
C327   C328    1.399   .     A
C327   H342    1.083   .     S
C327   C326    1.406   1_455 A
C328   C329    1.407   .     A
C328   H343    1.083   .     S
C329   C332    1.487   .     S
C329   C330    1.404   1_455 A
C330   C331    1.398   .     A
C330   H344    1.083   .     S
C330   C329    1.404   1_655 A
C331   H345    1.083   .     S
C332   C337    1.404   .     A
C332   C333    1.408   1_455 A
C333   H346    1.083   .     S
C333   C332    1.408   1_655 A
C333   C334    1.402   1_655 A
C334   C335    1.404   .     A
C334   C333    1.402   1_455 A
C334   H347    1.083   1_455 S
C335   C336    1.405   .     A
C336   C337    1.396   .     A
C336   H348    1.083   .     S
C337   H349    1.083   .     S
H341   C325    1.082   1_455 S
H347   C334    1.083   1_655 S
C350   C351    1.409   .     A
C350   C355    1.405   .     A
C350   C356    1.489   .     S
C351   C352    1.406   .     A
C351   H368    1.083   .     S
C352   C353    1.403   .     A
C352   H369    1.083   .     S
C353   C354    1.402   .     A
C354   C355    1.393   .     A
C354   H370    1.084   .     S
C355   H371    1.083   .     S
C356   C357    1.404   .     A
C356   C361    1.409   1_455 A
C357   C358    1.394   .     A
C357   H372    1.083   .     S
C358   H373    1.083   .     S
C358   C359    1.406   1_455 A
C359   C360    1.406   .     A
C359   C362    1.489   .     S
C359   C358    1.406   1_655 A
C360   C361    1.404   .     A
C360   H374    1.083   .     S
C361   H375    1.083   .     S
C361   C356    1.409   1_655 A
C362   C363    1.408   .     A
C362   C367    1.405   .     A
C363   C364    1.405   .     A
C363   H376    1.083   .     S
C364   C365    1.406   .     A
C364   H377    1.083   .     S
C365   C366    1.403   .     A
C366   C367    1.394   .     A
C366   H378    1.083   .     S
C367   H379    1.083   .     S
C380   C381    1.408   .     A
C380   C385    1.409   .     A
C380   C386    1.494   .     S
C381   C382    1.395   .     A
C381   H398    1.083   .     S
C382   C383    1.404   .     A
C382   H399    1.084   .     S
C383   C384    1.406   .     A
C384   C385    1.404   .     A
C384   H400    1.083   .     S
C385   H401    1.083   .     S
C386   C387    1.406   .     A
C386   C391    1.409   1_554 A
C387   H402    1.082   .     S
C387   C388    1.393   1_554 A
C388   C389    1.403   .     A
C388   H403    1.083   .     S
C388   C387    1.393   1_556 A
C389   C390    1.408   .     A
C389   C392    1.490   .     S
C390   C391    1.405   .     A
C390   H404    1.083   .     S
C391   H405    1.083   .     S
C391   C386    1.409   1_556 A
C392   C393    1.406   .     A
C392   C397    1.407   .     A
C393   C394    1.402   .     A
C393   H406    1.082   .     S
C394   H407    1.083   .     S
C394   C395    1.407   1_655 A
C395   C396    1.404   .     A
C395   C394    1.407   1_455 A
C396   H408    1.083   .     S
C396   C397    1.396   1_455 A
C397   H409    1.083   .     S
C397   C396    1.396   1_655 A
C410   C411    1.403   .     A
C410   C415    1.403   .     A
C410   C416    1.475   .     S
C411   C412    1.398   .     A
C411   H428    1.083   .     S
C412   C413    1.404   .     A
C412   H429    1.083   .     S
C413   C414    1.404   .     A
C414   C415    1.397   .     A
C414   H430    1.083   .     S
C415   H431    1.083   .     S
C416   C417    1.403   .     A
C416   C421    1.400   .     A
C417   C418    1.397   .     A
C417   H432    1.083   .     S
C418   C419    1.407   .     A
C418   H433    1.082   .     S
C419   C420    1.410   .     A
C419   C422    1.490   .     S
C420   C421    1.397   .     A
C420   H434    1.082   .     S
C421   H435    1.083   .     S
C422   C423    1.407   .     A
C422   C427    1.410   .     A
C423   C424    1.396   .     A
C423   H436    1.082   .     S
C424   C425    1.402   .     A
C424   H437    1.083   .     S
C425   C426    1.401   .     A
C426   C427    1.398   .     A
C426   H438    1.084   .     S
C427   H439    1.082   .     S
