data_lcy+N394+E225
_audit_creation_date              2025-01-21
_audit_creation_method            'Materials Studio'
_symmetry_space_group_name_H-M    'P1'
_symmetry_Int_Tables_number       1
_symmetry_cell_setting            triclinic
loop_
_symmetry_equiv_pos_as_xyz
  x,y,z
_cell_length_a                    32.9161
_cell_length_b                    33.3314
_cell_length_c                    32.0083
_cell_angle_alpha                 94.5693
_cell_angle_beta                  99.4286
_cell_angle_gamma                 90.0363
loop_
_atom_site_label
_atom_site_type_symbol
_atom_site_fract_x
_atom_site_fract_y
_atom_site_fract_z
_atom_site_U_iso_or_equiv
_atom_site_adp_type
_atom_site_occupancy
Pr0    Pr    0.08199   0.66467   0.85773   0.00000  Uiso   1.00
Pr1    Pr    0.12730   0.60551   0.92643   0.00000  Uiso   1.00
O2     O     0.05787   0.62599   0.92859   0.00000  Uiso   1.00
O3     O     0.05137   0.68976   0.91101   0.00000  Uiso   1.00
O4     O     0.03375   0.69049   0.80759   0.00000  Uiso   1.00
O5     O     0.08904   0.72496   0.83127   0.00000  Uiso   1.00
O6     O     0.14043   0.66498   0.90278   0.00000  Uiso   1.00
O7     O     0.12960   0.71717   0.86661   0.00000  Uiso   1.00
C8     C     0.07262   0.56973   0.85776   0.00000  Uiso   1.00
C9     C     0.04014   0.66095   0.93064   0.00000  Uiso   1.00
C10    C     0.05407   0.72315   0.80713   0.00000  Uiso   1.00
C11    C     0.16884   0.55037   0.97090   0.00000  Uiso   1.00
C12    C     0.14591   0.60530   0.82336   0.00000  Uiso   1.00
C13    C     0.15480   0.70122   0.89243   0.00000  Uiso   1.00
O14    O     0.11877   0.63196   0.81282   0.00000  Uiso   1.00
O15    O     0.15276   0.59132   0.86089   0.00000  Uiso   1.00
O16    O     0.18684   0.58023   0.95822   0.00000  Uiso   1.00
O17    O     0.12989   0.54701   0.95762   0.00000  Uiso   1.00
O18    O     0.06387   0.60408   0.88132   0.00000  Uiso   1.00
O19    O     0.10786   0.55960   0.86867   0.00000  Uiso   1.00
Pr20   Pr    0.63067   0.88260   0.07824   0.00000  Uiso   1.00
Pr21   Pr    0.59450   0.80708   0.12453   0.00000  Uiso   1.00
O22    O     0.66044   0.80131   0.10227   0.00000  Uiso   1.00
O23    O     0.66316   0.83399   0.04414   0.00000  Uiso   1.00
O24    O     0.67566   0.92769   0.05928   0.00000  Uiso   1.00
O25    O     0.61398   0.92391   1.02544   0.00000  Uiso   1.00
O26    O     0.57051   0.84801   0.07386   0.00000  Uiso   1.00
O27    O     0.60090   0.83798   1.02079   0.00000  Uiso   1.00
C28    C     0.65099   0.86036   0.17346   0.00000  Uiso   1.00
C29    C     0.67582   0.80602   0.06795   0.00000  Uiso   1.00
C30    C     0.64943   0.94013   1.02934   0.00000  Uiso   1.00
C31    C     0.56564   0.75734   0.17413   0.00000  Uiso   1.00
C32    C     0.57197   0.90714   0.14585   0.00000  Uiso   1.00
C33    C     0.56972   0.83059   0.03401   0.00000  Uiso   1.00
O34    O     0.59299   0.92039   0.11912   0.00000  Uiso   1.00
O35    O     0.57003   0.86914   0.15329   0.00000  Uiso   1.00
O36    O     0.54162   0.77776   0.14823   0.00000  Uiso   1.00
O37    O     0.60423   0.76441   0.17624   0.00000  Uiso   1.00
O38    O     0.65531   0.84355   0.13361   0.00000  Uiso   1.00
O39    O     0.61867   0.85000   0.18296   0.00000  Uiso   1.00
Pr40   Pr    0.91353   0.15356   0.58143   0.00000  Uiso   1.00
Pr41   Pr    0.85585   0.11732   0.64457   0.00000  Uiso   1.00
O42    O     0.88777   0.18360   0.66110   0.00000  Uiso   1.00
O43    O     0.95021   0.18061   0.64249   0.00000  Uiso   1.00
O44    O     0.94385   0.20160   0.54985   0.00000  Uiso   1.00
O45    O     0.96733   0.14142   0.54681   0.00000  Uiso   1.00
O46    O     0.90663   0.09484   0.61013   0.00000  Uiso   1.00
O47    O     0.96107   0.12912   0.63579   0.00000  Uiso   1.00
C48    C     0.82114   0.17427   0.59203   0.00000  Uiso   1.00
C49    C     0.92561   0.19720   0.66526   0.00000  Uiso   1.00
C50    C     0.97167   0.17801   0.53917   0.00000  Uiso   1.00
C51    C     0.79876   0.08468   0.68135   0.00000  Uiso   1.00
C52    C     0.83834   0.10090   0.53396   0.00000  Uiso   1.00
C53    C     0.94342   0.09740   0.63719   0.00000  Uiso   1.00
O54    O     0.86872   0.12277   0.52784   0.00000  Uiso   1.00
O55    O     0.82872   0.09676   0.57157   0.00000  Uiso   1.00
O56    O     0.82229   0.06318   0.66051   0.00000  Uiso   1.00
O57    O     0.80241   0.12299   0.68031   0.00000  Uiso   1.00
O58    O     0.86002   0.17790   0.61618   0.00000  Uiso   1.00
O59    O     0.80609   0.14138   0.59391   0.00000  Uiso   1.00
Pr60   Pr    0.38716   0.39754   0.43615   0.00000  Uiso   1.00
Pr61   Pr    0.41208   0.33160   0.37274   0.00000  Uiso   1.00
O62    O     0.37214   0.29253   0.40683   0.00000  Uiso   1.00
O63    O     0.35024   0.34306   0.44985   0.00000  Uiso   1.00
O64    O     0.34649   0.44206   0.46751   0.00000  Uiso   1.00
O65    O     0.40291   0.42409   0.50451   0.00000  Uiso   1.00
O66    O     0.44408   0.36327   0.43276   0.00000  Uiso   1.00
O67    O     0.43067   0.37867   0.49537   0.00000  Uiso   1.00
C68    C     0.37129   0.39438   0.33502   0.00000  Uiso   1.00
C69    C     0.34925   0.30608   0.43398   0.00000  Uiso   1.00
C70    C     0.36977   0.44404   0.50374   0.00000  Uiso   1.00
C71    C     0.43290   0.27218   0.31923   0.00000  Uiso   1.00
C72    C     0.45510   0.42438   0.38121   0.00000  Uiso   1.00
C73    C     0.45282   0.35823   0.47548   0.00000  Uiso   1.00
O74    O     0.43358   0.43629   0.41053   0.00000  Uiso   1.00
O75    O     0.45238   0.38788   0.36142   0.00000  Uiso   1.00
O76    O     0.45692   0.28482   0.35335   0.00000  Uiso   1.00
O77    O     0.39928   0.29150   0.31154   0.00000  Uiso   1.00
O78    O     0.35888   0.37602   0.36829   0.00000  Uiso   1.00
O79    O     0.40317   0.38045   0.32571   0.00000  Uiso   1.00
C80    C     0.53251   0.81119   0.00905   0.00000  Uiso   1.00
C81    C     0.49488   0.83012   0.01123   0.00000  Uiso   1.00
C82    C     0.45821   0.81284  -0.01063   0.00000  Uiso   1.00
C83    C     0.45802   0.77470   0.96680   0.00000  Uiso   1.00
C84    C     0.49601   0.75655   0.96331   0.00000  Uiso   1.00
C85    C     0.53319   0.77479   0.98404   0.00000  Uiso   1.00
C86    C     0.38566   0.76348   0.96429   0.00000  Uiso   1.00
H87    H     0.22054   0.66084   0.93016   0.00000  Uiso   1.00
H88    H     0.29010   0.68790   0.95831   0.00000  Uiso   1.00
H89    H     0.25192   0.80532   0.92193   0.00000  Uiso   1.00
H90    H     0.18258   0.77833   0.89224   0.00000  Uiso   1.00
H91    H     0.34511   0.73428   0.91335   0.00000  Uiso   1.00
O92    O     0.31382   0.76503   0.96142   0.00000  Uiso   1.00
O93    O     0.42131   0.75487   0.94628   0.00000  Uiso   1.00
C94    C     0.19636   0.71766   0.90919   0.00000  Uiso   1.00
C95    C     0.22716   0.69235   0.92774   0.00000  Uiso   1.00
C96    C     0.26686   0.70752   0.94334   0.00000  Uiso   1.00
C97    C     0.27610   0.74829   0.94102   0.00000  Uiso   1.00
C98    C     0.24531   0.77362   0.92294   0.00000  Uiso   1.00
C99    C     0.20587   0.75830   0.90638   0.00000  Uiso   1.00
C100   C     0.34835   0.75186   0.94388   0.00000  Uiso   1.00
H101   H     0.43021   0.82961  -0.00976   0.00000  Uiso   1.00
H102   H     0.49667   0.72784   0.94507   0.00000  Uiso   1.00
H103   H     0.49393   0.85884   0.02948   0.00000  Uiso   1.00
H104   H     0.38748   0.77981  -0.00469   0.00000  Uiso   1.00
H105   H     0.56212   0.76003   0.98163   0.00000  Uiso   1.00
C106   C     0.44180   0.23638   0.29220   0.00000  Uiso   1.00
C107   C     0.41537   0.22537   0.25392   0.00000  Uiso   1.00
C108   C     0.42067   0.18905   0.23068   0.00000  Uiso   1.00
C109   C     0.45177   0.16267   0.24554   0.00000  Uiso   1.00
C110   C     0.47963   0.17451   0.28283   0.00000  Uiso   1.00
C111   C     0.47456   0.21106   0.30599   0.00000  Uiso   1.00
C112   C     0.46830   0.09266   0.24270   0.00000  Uiso   1.00
H113   H     0.57546   0.98869   0.14476   0.00000  Uiso   1.00
H114   H     0.54231   0.03904   0.18591   0.00000  Uiso   1.00
H115   H     0.48639   0.94589   0.24437   0.00000  Uiso   1.00
H116   H     0.52086   0.89447   0.20369   0.00000  Uiso   1.00
H117   H     0.47302   0.05898   0.18605   0.00000  Uiso   1.00
O118   O     0.49037   0.02470   0.24112   0.00000  Uiso   1.00
O119   O     0.45534   0.12649   0.22085   0.00000  Uiso   1.00
C120   C     0.55052   0.93736   0.17055   0.00000  Uiso   1.00
C121   C     0.55586   0.97860   0.16602   0.00000  Uiso   1.00
C122   C     0.53643   1.00759   0.18926   0.00000  Uiso   1.00
C123   C     0.51018   0.99613   0.21694   0.00000  Uiso   1.00
C124   C     0.50561   0.95515   0.22237   0.00000  Uiso   1.00
C125   C     0.52534   0.92593   0.19920   0.00000  Uiso   1.00
C126   C     0.47669   0.05907   0.22047   0.00000  Uiso   1.00
H127   H     0.39984   0.18087   0.20139   0.00000  Uiso   1.00
H128   H     0.50526   0.15568   0.29398   0.00000  Uiso   1.00
H129   H     0.39015   0.24452   0.24231   0.00000  Uiso   1.00
H130   H     0.47131   0.09308   0.27708   0.00000  Uiso   1.00
H131   H     0.49570   0.21906   0.33515   0.00000  Uiso   1.00
C132   C     0.79761   0.20628   0.57031   0.00000  Uiso   1.00
C133   C     0.80661   0.24699   0.58329   0.00000  Uiso   1.00
C134   C     0.77814   0.27659   0.57016   0.00000  Uiso   1.00
C135   C     0.74055   0.26567   0.54428   0.00000  Uiso   1.00
C136   C     0.73323   0.22538   0.52851   0.00000  Uiso   1.00
C137   C     0.76147   0.19592   0.54150   0.00000  Uiso   1.00
C138   C     0.67363   0.28514   0.55087   0.00000  Uiso   1.00
H139   H     0.51137   0.32118   0.43585   0.00000  Uiso   1.00
H140   H     0.57705   0.29458   0.46932   0.00000  Uiso   1.00
H141   H     0.54354   0.32230   0.59287   0.00000  Uiso   1.00
H142   H     0.47777   0.34943   0.55960   0.00000  Uiso   1.00
H143   H     0.63799   0.32612   0.51481   0.00000  Uiso   1.00
O144   O     0.60321   0.29381   0.55434   0.00000  Uiso   1.00
O145   O     0.70999   0.29451   0.53577   0.00000  Uiso   1.00
C146   C     0.48989   0.33788   0.49531   0.00000  Uiso   1.00
C147   C     0.51806   0.32167   0.47017   0.00000  Uiso   1.00
C148   C     0.55578   0.30699   0.48925   0.00000  Uiso   1.00
C149   C     0.56584   0.30836   0.53382   0.00000  Uiso   1.00
C150   C     0.53666   0.32223   0.55861   0.00000  Uiso   1.00
C151   C     0.49915   0.33735   0.53963   0.00000  Uiso   1.00
C152   C     0.63855   0.30363   0.53774   0.00000  Uiso   1.00
H153   H     0.78421   0.30768   0.58207   0.00000  Uiso   1.00
H154   H     0.70475   0.21670   0.50765   0.00000  Uiso   1.00
H155   H     0.83420   0.25559   0.60567   0.00000  Uiso   1.00
H156   H     0.67344   0.26245   0.57352   0.00000  Uiso   1.00
H157   H     0.75409   0.16472   0.53071   0.00000  Uiso   1.00
C158   C     0.77247   0.06677   0.70827   0.00000  Uiso   1.00
C159   C     0.75895   0.09066   0.74130   0.00000  Uiso   1.00
C160   C     0.74181   0.07286   0.77259   0.00000  Uiso   1.00
C161   C     0.73671   0.03063   0.77069   0.00000  Uiso   1.00
C162   C     0.74827   0.00720   0.73634   0.00000  Uiso   1.00
C163   C     0.76611   0.02495   0.70548   0.00000  Uiso   1.00
C164   C     0.70456   0.03172   0.83354   0.00000  Uiso   1.00
H165   H     0.72461   0.95943   1.01025   0.00000  Uiso   1.00
H166   H     0.73792   1.00039   0.95318   0.00000  Uiso   1.00
H167   H     0.60888   0.02743   0.92528   0.00000  Uiso   1.00
H168   H     0.59523   0.98622   0.98179   0.00000  Uiso   1.00
H169   H     0.71682   0.98783   0.87680   0.00000  Uiso   1.00
O170   O     0.67947   1.03657   0.89899   0.00000  Uiso   1.00
O171   O     0.72504   0.01020   0.80386   0.00000  Uiso   1.00
C172   C     0.65887   0.96928   0.99986   0.00000  Uiso   1.00
C173   C     0.69922   0.97441   0.99211   0.00000  Uiso   1.00
C174   C     0.70672   0.99727   0.95923   0.00000  Uiso   1.00
C175   C     0.67388   1.01538   0.93384   0.00000  Uiso   1.00
C176   C     0.63421   1.01266   0.94377   0.00000  Uiso   1.00
C177   C     0.62657   0.98930   0.97603   0.00000  Uiso   1.00
C178   C     0.70220   1.01648   0.87038   0.00000  Uiso   1.00
H179   H     0.73491   0.09223   0.79914   0.00000  Uiso   1.00
H180   H     0.74496   0.97473   0.73446   0.00000  Uiso   1.00
H181   H     0.76419   0.12294   0.74464   0.00000  Uiso   1.00
H182   H     0.68877   0.05958   0.82649   0.00000  Uiso   1.00
H183   H     0.77661   0.00586   0.68051   0.00000  Uiso   1.00
C184   C     0.81204   0.08094   0.49599   0.00000  Uiso   1.00
C185   C     0.78164   0.05260   0.50024   0.00000  Uiso   1.00
C186   C     0.75764   1.03314   0.46420   0.00000  Uiso   1.00
C187   C     0.76413   0.04098   0.42343   0.00000  Uiso   1.00
C188   C     0.79346   0.07029   0.41904   0.00000  Uiso   1.00
C189   C     0.81727   0.08997   0.45494   0.00000  Uiso   1.00
C190   C     0.75930   1.00698   0.35455   0.00000  Uiso   1.00
H191   H     0.65035   0.87869   0.25649   0.00000  Uiso   1.00
H192   H     0.69503   0.92471   0.30540   0.00000  Uiso   1.00
H193   H     0.76193   0.95114   0.20536   0.00000  Uiso   1.00
H194   H     0.71751   0.90233   0.15582   0.00000  Uiso   1.00
H195   H     0.70352   0.99377   0.31479   0.00000  Uiso   1.00
O196   O     0.75569   0.97217   0.28591   0.00000  Uiso   1.00
O197   O     0.73901   0.02150   0.38799   0.00000  Uiso   1.00
C198   C     0.68003   0.88767   0.20218   0.00000  Uiso   1.00
C199   C     0.67443   0.89440   0.24467   0.00000  Uiso   1.00
C200   C     0.69970   0.92137   0.27263   0.00000  Uiso   1.00
C201   C     0.73050   0.94361   0.25849   0.00000  Uiso   1.00
C202   C     0.73746   0.93544   0.21648   0.00000  Uiso   1.00
C203   C     0.71230   0.90765   0.18834   0.00000  Uiso   1.00
C204   C     0.73689   0.99191   0.31819   0.00000  Uiso   1.00
H205   H     0.73431   1.01143   0.46804   0.00000  Uiso   1.00
H206   H     0.79747   0.07824   0.38781   0.00000  Uiso   1.00
H207   H     0.77668   1.04522   0.53137   0.00000  Uiso   1.00
H208   H     0.79272   1.00537   0.35870   0.00000  Uiso   1.00
H209   H     0.83962   0.11242   0.45042   0.00000  Uiso   1.00
C210   C     0.35831   0.46494   0.54251   0.00000  Uiso   1.00
C211   C     0.31819   0.47911   0.54268   0.00000  Uiso   1.00
C212   C     0.30576   0.49362   0.58078   0.00000  Uiso   1.00
C213   C     0.33365   0.49508   0.61946   0.00000  Uiso   1.00
C214   C     0.37379   0.48149   0.61895   0.00000  Uiso   1.00
C215   C     0.38613   0.46675   0.58094   0.00000  Uiso   1.00
C216   C     0.29037   0.53430   0.65958   0.00000  Uiso   1.00
H217   H     0.22464   0.57616   0.83225   0.00000  Uiso   1.00
H218   H     0.26493   0.56001   0.77530   0.00000  Uiso   1.00
H219   H     0.15939   0.58354   0.68196   0.00000  Uiso   1.00
H220   H     0.11936   0.60030   0.73856   0.00000  Uiso   1.00
H221   H     0.27705   0.51918   0.71819   0.00000  Uiso   1.00
O222   O     0.23665   0.56507   0.68978   0.00000  Uiso   1.00
O223   O     0.32189   0.50600   0.65917   0.00000  Uiso   1.00
C224   C     0.16891   0.58936   0.78983   0.00000  Uiso   1.00
C225   C     0.20982   0.57668   0.79950   0.00000  Uiso   1.00
C226   C     0.23276   0.56718   0.76680   0.00000  Uiso   1.00
C227   C     0.21464   0.56952   0.72392   0.00000  Uiso   1.00
C228   C     0.17359   0.58108   0.71464   0.00000  Uiso   1.00
C229   C     0.15087   0.59071   0.74703   0.00000  Uiso   1.00
C230   C     0.26963   0.53831   0.69213   0.00000  Uiso   1.00
H231   H     0.27393   0.50206   0.58005   0.00000  Uiso   1.00
H232   H     0.39536   0.48158   0.64839   0.00000  Uiso   1.00
H233   H     0.29583   0.47728   0.51370   0.00000  Uiso   1.00
H234   H     0.28223   0.55330   0.63348   0.00000  Uiso   1.00
H235   H     0.41712   0.45560   0.58183   0.00000  Uiso   1.00
C236   C     0.19066   0.52412   1.00197   0.00000  Uiso   1.00
C237   C     0.22940   0.53605   0.02514   0.00000  Uiso   1.00
C238   C     0.24722   0.51518   0.05956   0.00000  Uiso   1.00
C239   C     0.22672   0.48186   0.07103   0.00000  Uiso   1.00
C240   C     0.18929   0.46851   0.04652   0.00000  Uiso   1.00
C241   C     0.17105   0.48975   1.01251   0.00000  Uiso   1.00
C242   C     0.24915   0.48333   0.14491   0.00000  Uiso   1.00
H243   H     0.29460   0.42305   0.34249   0.00000  Uiso   1.00
H244   H     0.25082   0.46304   0.29151   0.00000  Uiso   1.00
H245   H     0.35014   0.47177   0.22025   0.00000  Uiso   1.00
H246   H     0.39423   0.43305   0.27112   0.00000  Uiso   1.00
H247   H     0.27923   0.43625   0.17571   0.00000  Uiso   1.00
O248   O     0.27035   0.48723   0.21997   0.00000  Uiso   1.00
O249   O     0.24396   0.46064   0.10546   0.00000  Uiso   1.00
C250   C     0.34735   0.42422   0.31003   0.00000  Uiso   1.00
C251   C     0.30720   0.43417   0.31633   0.00000  Uiso   1.00
C252   C     0.28221   0.45672   0.28729   0.00000  Uiso   1.00
C253   C     0.29688   0.46876   0.25142   0.00000  Uiso   1.00
C254   C     0.33803   0.46152   0.24708   0.00000  Uiso   1.00
C255   C     0.36308   0.43955   0.27618   0.00000  Uiso   1.00
C256   C     0.26741   0.46660   0.17947   0.00000  Uiso   1.00
H257   H     0.27672   0.52514   0.07759   0.00000  Uiso   1.00
H258   H     0.17366   0.44239   0.05474   0.00000  Uiso   1.00
H259   H     0.24515   0.56246   0.01771   0.00000  Uiso   1.00
H260   H     0.23758   0.51382   0.14803   0.00000  Uiso   1.00
H261   H     0.14119   0.47992   0.99517   0.00000  Uiso   1.00
C262   C     0.31788   0.27908   0.44589   0.00000  Uiso   1.00
C263   C     0.28501   0.29633   0.46366   0.00000  Uiso   1.00
C264   C     0.25219   0.27276   0.47044   0.00000  Uiso   1.00
C265   C     0.25164   0.23071   0.46079   0.00000  Uiso   1.00
C266   C     0.28470   0.21329   0.44355   0.00000  Uiso   1.00
C267   C     0.31758   0.23717   0.43612   0.00000  Uiso   1.00
C268   C     0.19202   0.22109   0.49286   0.00000  Uiso   1.00
H269   H     0.99713   0.25545   0.53763   0.00000  Uiso   1.00
H270   H     0.06525   0.27803   0.52680   0.00000  Uiso   1.00
H271   H     0.09849   0.15491   0.49887   0.00000  Uiso   1.00
H272   H     0.03073   0.13232   0.50945   0.00000  Uiso   1.00
H273   H     0.13868   0.19143   0.45960   0.00000  Uiso   1.00
O274   O     0.12709   0.23275   0.51250   0.00000  Uiso   1.00
O275   O     0.21750   0.20613   0.46411   0.00000  Uiso   1.00
C276   C     1.00850   0.19218   0.52370   0.00000  Uiso   1.00
C277   C     0.01842   0.23339   0.52750   0.00000  Uiso   1.00
C278   C     0.05731   0.24630   0.52156   0.00000  Uiso   1.00
C279   C     0.08668   0.21854   0.51108   0.00000  Uiso   1.00
C280   C     0.07614   0.17729   0.50550   0.00000  Uiso   1.00
C281   C     0.03734   0.16433   0.51173   0.00000  Uiso   1.00
C282   C     0.15189   0.21198   0.48650   0.00000  Uiso   1.00
H283   H     0.22660   0.28806   0.48169   0.00000  Uiso   1.00
H284   H     0.28452   0.18117   0.43509   0.00000  Uiso   1.00
H285   H     0.28349   0.32857   0.47053   0.00000  Uiso   1.00
H286   H     0.20427   0.24169   0.52009   0.00000  Uiso   1.00
H287   H     0.34221   0.22300   0.42199   0.00000  Uiso   1.00
C288   C     0.95901   0.06489   0.66389   0.00000  Uiso   1.00
C289   C     0.99789   0.06742   0.68967   0.00000  Uiso   1.00
C290   C     1.01316   0.03453   0.71179   0.00000  Uiso   1.00
C291   C     0.99004   0.99872   0.70841   0.00000  Uiso   1.00
C292   C     0.95006  -0.00278   0.68444   0.00000  Uiso   1.00
C293   C     0.93499   0.02980   0.66211   0.00000  Uiso   1.00
C294   C     0.99508   0.92748   0.71300   0.00000  Uiso   1.00
H295   H     0.97704   0.73209   0.76179   0.00000  Uiso   1.00
H296   H     0.95118   0.79048   0.72347   0.00000  Uiso   1.00
H297   H     0.07022   0.84857   0.75868   0.00000  Uiso   1.00
H298   H     0.09607   0.79085   0.79678   0.00000  Uiso   1.00
H299   H     1.02256   0.90050   0.76713   0.00000  Uiso   1.00
O300   O    -0.00812   0.85707   0.71730   0.00000  Uiso   1.00
O301   O     1.00694   0.96645   0.73104   0.00000  Uiso   1.00
C302   C     0.03848   0.75703   0.78230   0.00000  Uiso   1.00
C303   C     0.99761   0.75733   0.76119   0.00000  Uiso   1.00
C304   C     0.98273   0.79070   0.73974   0.00000  Uiso   1.00
C305   C     0.00802   0.82455   0.73979   0.00000  Uiso   1.00
C306   C     0.04935   0.82373   0.75986   0.00000  Uiso   1.00
C307   C     0.06427   0.79042   0.78115   0.00000  Uiso   1.00
C308   C     1.00528   0.89570   0.73509   0.00000  Uiso   1.00
H309   H     1.04342   1.03661   0.73113   0.00000  Uiso   1.00
H310   H     0.93027  -0.02894   0.68300   0.00000  Uiso   1.00
H311   H     1.01662   0.09450   0.69225   0.00000  Uiso   1.00
H312   H     0.97831   0.92231   0.68081   0.00000  Uiso   1.00
H313   H     0.90452   0.02738   0.64312   0.00000  Uiso   1.00
C314   C     0.04268   0.54444   0.82751   0.00000  Uiso   1.00
C315   C     0.05645   0.50967   0.80675   0.00000  Uiso   1.00
C316   C     0.02849   0.48054   0.78544   0.00000  Uiso   1.00
C317   C    -0.01433   0.48593   0.78344   0.00000  Uiso   1.00
C318   C    -0.02802   0.52175   0.80243   0.00000  Uiso   1.00
C319   C     0.00019   0.55089   0.82422   0.00000  Uiso   1.00
C320   C    -0.03139   0.42567   0.73806   0.00000  Uiso   1.00
H321   H     0.87561   0.25816   0.68811   0.00000  Uiso   1.00
H322   H     0.89619   0.32891   0.70677   0.00000  Uiso   1.00
H323   H     0.02322   0.29743   0.70818   0.00000  Uiso   1.00
H324   H     1.00313   0.22679   0.69041   0.00000  Uiso   1.00
H325   H     0.93504   0.37868   0.75720   0.00000  Uiso   1.00
O326   O     0.97446   0.35865   0.71139   0.00000  Uiso   1.00
O327   O     0.95646   0.45508   0.76732   0.00000  Uiso   1.00
C328   C     0.93783   0.23692   0.68787   0.00000  Uiso   1.00
C329   C     0.90808   0.26607   0.69442   0.00000  Uiso   1.00
C330   C     0.91983   0.30659   0.70505   0.00000  Uiso   1.00
C331   C     0.96155   0.31831   0.70952   0.00000  Uiso   1.00
C332   C     0.99111   0.28880   0.70543   0.00000  Uiso   1.00
C333   C     0.97956   0.24852   0.69527   0.00000  Uiso   1.00
C334   C     0.95605   0.38736   0.73650   0.00000  Uiso   1.00
H335   H     0.04082   0.45297   0.77273   0.00000  Uiso   1.00
H336   H     0.93932   0.52635   0.80170   0.00000  Uiso   1.00
H337   H     0.08908   0.50380   0.80912   0.00000  Uiso   1.00
H338   H    -0.00979   0.43332   0.71750   0.00000  Uiso   1.00
H339   H    -0.01117   0.57730   0.84040   0.00000  Uiso   1.00
C340   C     0.71280   0.78295   0.06047   0.00000  Uiso   1.00
C341   C     0.73019   0.78642   1.02355   0.00000  Uiso   1.00
C342   C     0.76766   0.76799   1.01912   0.00000  Uiso   1.00
C343   C     0.78831   0.74578   0.05157   0.00000  Uiso   1.00
C344   C     0.77061   0.74168   0.08781   0.00000  Uiso   1.00
C345   C     0.73305   0.75962   0.09214   0.00000  Uiso   1.00
C346   C     0.83508   0.71035   1.01336   0.00000  Uiso   1.00
H347   H     0.00010   0.73017  -0.05098   0.00000  Uiso   1.00
H348   H     0.93060   0.73592  -0.03311   0.00000  Uiso   1.00
H349   H     0.92271   0.60730   0.96931   0.00000  Uiso   1.00
H350   H     0.99238   0.60087   0.95162   0.00000  Uiso   1.00
H351   H     0.89855   0.70880   0.03487   0.00000  Uiso   1.00
O352   O     0.88032   0.67431   0.97424   0.00000  Uiso   1.00
O353   O     0.82830   0.73152   0.05112   0.00000  Uiso   1.00
C354   C     0.00158   0.66507   0.94864   0.00000  Uiso   1.00
C355   C    -0.01609   0.70313   0.95415   0.00000  Uiso   1.00
C356   C     0.94436   0.70652   0.96450   0.00000  Uiso   1.00
C357   C     0.92179   0.67192   0.96941   0.00000  Uiso   1.00
C358   C     0.93985   0.63412   0.96548   0.00000  Uiso   1.00
C359   C     0.97965   0.63065   0.95567   0.00000  Uiso   1.00
C360   C     0.87329   0.69934   1.00952   0.00000  Uiso   1.00
H361   H     0.78133   0.77240   0.99128   0.00000  Uiso   1.00
H362   H     0.78643   0.72499   0.11313   0.00000  Uiso   1.00
H363   H     0.71541   0.80427   0.99866   0.00000  Uiso   1.00
H364   H     0.80969   0.70141   0.98798   0.00000  Uiso   1.00
H365   H     0.72070   0.75638   0.12108   0.00000  Uiso   1.00
C366   C     0.55030   0.72566   0.19740   0.00000  Uiso   1.00
C367   C     0.57762   0.69711   0.21560   0.00000  Uiso   1.00
C368   C     0.56277   0.66354   0.23211   0.00000  Uiso   1.00
C369   C     0.52021   0.65864   0.23226   0.00000  Uiso   1.00
C370   C     0.49315   0.68757   0.21468   0.00000  Uiso   1.00
C371   C     0.50797   0.72085   0.19748   0.00000  Uiso   1.00
C372   C     0.52777   0.60540   0.27898   0.00000  Uiso   1.00
H373   H     0.48006   0.42675   0.30384   0.00000  Uiso   1.00
H374   H     0.51481   0.48335   0.27860   0.00000  Uiso   1.00
H375   H     0.52526   0.54701   0.40227   0.00000  Uiso   1.00
H376   H     0.48876   0.49184   0.42735   0.00000  Uiso   1.00
H377   H     0.48609   0.55722   0.27515   0.00000  Uiso   1.00
O378   O     0.53951   0.55305   0.32478   0.00000  Uiso   1.00
O379   O     0.50324   0.62438   0.24634   0.00000  Uiso   1.00
C380   C     0.48139   0.45506   0.36745   0.00000  Uiso   1.00
C381   C     0.48992   0.45273   0.32570   0.00000  Uiso   1.00
C382   C     0.50938   0.48502   0.31115   0.00000  Uiso   1.00
C383   C     0.52120   0.51967   0.33849   0.00000  Uiso   1.00
C384   C     0.51530   0.52081   0.38078   0.00000  Uiso   1.00
C385   C     0.49482   0.48921   0.39500   0.00000  Uiso   1.00
C386   C     0.51538   0.57060   0.29088   0.00000  Uiso   1.00
H387   H     0.58452   0.64086   0.24317   0.00000  Uiso   1.00
H388   H     0.46031   0.68392   0.21375   0.00000  Uiso   1.00
H389   H     0.61038   0.69969   0.21531   0.00000  Uiso   1.00
H390   H     0.55610   0.61923   0.29634   0.00000  Uiso   1.00
H391   H     0.48629   0.74231   0.18336   0.00000  Uiso   1.00
loop_
_geom_bond_atom_site_label_1
_geom_bond_atom_site_label_2
_geom_bond_distance
_geom_bond_site_symmetry_2
_ccdc_geom_bond_type
Pr0    O3      2.227   .     S
Pr0    O4      2.286   .     S
Pr0    O5      2.268   .     S
Pr0    O6      2.206   .     S
Pr0    O7      2.317   .     S
Pr0    O14     2.246   .     S
Pr0    O18     2.323   .     S
Pr1    O2      2.396   .     S
Pr1    O6      2.244   .     S
Pr1    O15     2.397   .     S
Pr1    O16     2.252   .     S
Pr1    O17     2.256   .     S
Pr1    O18     2.334   .     S
Pr1    O19     2.309   .     S
O2     C9      1.305   .     A
O3     C9      1.275   .     A
O4     C10     1.279   .     A
O5     C10     1.275   .     A
O6     C13     1.381   .     S
O7     C13     1.225   .     D
C8     O18     1.377   .     S
C8     O19     1.212   .     D
C8     C314    1.475   .     S
C9     C354    1.479   .     S
C10    C302    1.477   .     S
C11    O16     1.284   .     A
C11    O17     1.285   .     A
C11    C236    1.475   .     S
C12    O14     1.285   .     A
C12    O15     1.308   .     A
C12    C224    1.478   .     S
C13    C94     1.473   .     S
Pr20   O23     2.250   .     S
Pr20   O24     2.293   .     S
Pr20   O26     2.270   .     S
Pr20   O34     2.260   .     S
Pr20   O38     2.322   .     S
Pr20   O25     2.263   1_554 S
Pr20   O27     2.351   1_554 S
Pr21   O22     2.396   .     S
Pr21   O26     2.247   .     S
Pr21   O35     2.391   .     S
Pr21   O36     2.260   .     S
Pr21   O37     2.251   .     S
Pr21   O38     2.306   .     S
Pr21   O39     2.294   .     S
O22    C29     1.303   .     A
O23    C29     1.278   .     A
O24    C30     1.276   1_554 A
O25    C30     1.269   .     A
O25    Pr20    2.263   1_556 S
O26    C33     1.355   .     S
O27    Pr20    2.351   1_556 S
O27    C33     1.205   1_556 D
C28    O38     1.381   .     S
C28    O39     1.211   .     D
C28    C198    1.472   .     S
C29    C340    1.483   .     S
C30    C172    1.474   .     S
C30    O24     1.276   1_556 A
C31    O36     1.285   .     A
C31    O37     1.282   .     A
C31    C366    1.474   .     S
C32    O34     1.288   .     A
C32    O35     1.311   .     A
C32    C120    1.482   .     S
C33    C80     1.467   .     S
C33    O27     1.205   1_554 D
Pr40   O43     2.244   .     S
Pr40   O44     2.274   .     S
Pr40   O45     2.258   .     S
Pr40   O46     2.254   .     S
Pr40   O47     2.340   .     S
Pr40   O54     2.249   .     S
Pr40   O58     2.345   .     S
Pr41   O42     2.427   .     S
Pr41   O46     2.246   .     S
Pr41   O55     2.406   .     S
Pr41   O56     2.251   .     S
Pr41   O57     2.250   .     S
Pr41   O58     2.292   .     S
Pr41   O59     2.301   .     S
O42    C49     1.308   .     A
O43    C49     1.274   .     A
O44    C50     1.279   .     A
O45    C50     1.275   .     A
O46    C53     1.367   .     S
O47    C53     1.214   .     D
C48    O58     1.382   .     S
C48    O59     1.213   .     D
C48    C132    1.471   .     S
C49    C328    1.480   .     S
C50    C276    1.473   .     S
C51    O56     1.285   .     A
C51    O57     1.286   .     A
C51    C158    1.474   .     S
C52    O54     1.287   .     A
C52    O55     1.312   .     A
C52    C184    1.481   .     S
C53    C288    1.474   .     S
Pr60   O63     2.294   .     S
Pr60   O64     2.282   .     S
Pr60   O65     2.271   .     S
Pr60   O66     2.208   .     S
Pr60   O67     2.311   .     S
Pr60   O74     2.292   .     S
Pr60   O78     2.277   .     S
Pr61   O62     2.304   .     S
Pr61   O66     2.220   .     S
Pr61   O75     2.382   .     S
Pr61   O76     2.268   .     S
Pr61   O77     2.261   .     S
Pr61   O78     2.288   .     S
Pr61   O79     2.291   .     S
O62    C69     1.296   .     A
O63    C69     1.293   .     A
O64    C70     1.278   .     A
O65    C70     1.276   .     A
O66    C73     1.374   .     S
O67    C73     1.218   .     D
C68    O78     1.386   .     S
C68    O79     1.219   .     D
C68    C250    1.474   .     S
C69    C262    1.485   .     S
C70    C210    1.478   .     S
C71    O76     1.280   .     A
C71    O77     1.279   .     A
C71    C106    1.476   .     S
C72    O74     1.303   .     A
C72    O75     1.322   .     A
C72    C380    1.478   .     S
C73    C146    1.472   .     S
C80    C81     1.400   .     A
C80    C85     1.401   1_554 A
C81    C82     1.391   .     A
C81    H103    1.084   .     S
C82    H101    1.081   .     S
C82    C83     1.411   1_554 A
C83    C84     1.407   .     A
C83    O93     1.413   .     S
C83    C82     1.411   1_556 A
C84    C85     1.406   .     A
C84    H102    1.082   .     S
C85    H105    1.083   .     S
C85    C80     1.401   1_556 A
C86    O93     1.410   .     S
C86    C100    1.335   .     D
C86    H104    1.086   1_556 S
H87    C95     1.084   .     S
H88    C96     1.083   .     S
H89    C98     1.083   .     S
H90    C99     1.083   .     S
H91    C100    1.088   .     S
O92    C97     1.398   .     S
O92    C100    1.403   .     S
C94    C95     1.406   .     A
C94    C99     1.403   .     A
C95    C96     1.399   .     A
C96    C97     1.403   .     A
C97    C98     1.401   .     A
C98    C99     1.399   .     A
H104   C86     1.086   1_554 S
C106   C107    1.404   .     A
C106   C111    1.405   .     A
C107   C108    1.396   .     A
C107   H129    1.083   .     S
C108   C109    1.398   .     A
C108   H127    1.083   .     S
C109   C110    1.410   .     A
C109   O119    1.404   .     S
C110   C111    1.399   .     A
C110   H128    1.082   .     S
C111   H131    1.083   .     S
C112   O119    1.404   .     S
C112   C126    1.332   .     D
C112   H130    1.087   .     S
H113   C121    1.083   .     S
H114   C122    1.083   1_545 S
H115   C124    1.083   .     S
H116   C125    1.083   .     S
H117   C126    1.088   .     S
O118   C126    1.406   .     S
O118   C123    1.407   1_545 S
C120   C121    1.408   .     A
C120   C125    1.406   .     A
C121   C122    1.392   .     A
C122   C123    1.408   .     A
C122   H114    1.083   1_565 S
C123   C124    1.402   .     A
C123   O118    1.407   1_565 S
C124   C125    1.401   .     A
C132   C133    1.404   .     A
C132   C137    1.405   .     A
C133   C134    1.403   .     A
C133   H155    1.083   .     S
C134   C135    1.402   .     A
C134   H153    1.082   .     S
C135   C136    1.403   .     A
C135   O145    1.401   .     S
C136   C137    1.393   .     A
C136   H154    1.083   .     S
C137   H157    1.084   .     S
C138   O145    1.406   .     S
C138   C152    1.332   .     D
C138   H156    1.089   .     S
H139   C147    1.083   .     S
H140   C148    1.083   .     S
H141   C150    1.082   .     S
H142   C151    1.083   .     S
H143   C152    1.088   .     S
O144   C149    1.402   .     S
O144   C152    1.405   .     S
C146   C147    1.405   .     A
C146   C151    1.403   .     A
C147   C148    1.398   .     A
C148   C149    1.408   .     A
C149   C150    1.399   .     A
C150   C151    1.397   .     A
C158   C159    1.404   .     A
C158   C163    1.403   .     A
C159   C160    1.397   .     A
C159   H181    1.084   .     S
C160   C161    1.413   .     A
C160   H179    1.080   .     S
C161   C162    1.402   .     A
C161   O171    1.410   .     S
C162   C163    1.398   .     A
C162   H180    1.083   1_545 S
C163   H183    1.083   .     S
C164   O171    1.405   .     S
C164   H182    1.086   .     S
C164   C178    1.334   1_545 D
H165   C173    1.083   .     S
H166   C174    1.082   .     S
H167   C176    1.083   1_545 S
H168   C177    1.083   .     S
H169   C178    1.089   .     S
O170   C175    1.404   .     S
O170   C178    1.405   .     S
C172   C173    1.403   .     A
C172   C177    1.405   .     A
C173   C174    1.401   .     A
C174   C175    1.409   .     A
C175   C176    1.398   .     A
C176   C177    1.396   .     A
C176   H167    1.083   1_565 S
C178   C164    1.334   1_565 D
H180   C162    1.083   1_565 S
C184   C185    1.405   .     A
C184   C189    1.409   .     A
C185   C186    1.399   1_545 A
C185   H207    1.083   1_545 S
C186   H205    1.083   .     S
C186   C185    1.399   1_565 A
C186   C187    1.401   1_565 A
C187   C188    1.404   .     A
C187   O197    1.402   .     S
C187   C186    1.401   1_545 A
C188   C189    1.396   .     A
C188   H206    1.083   .     S
C189   H209    1.083   .     S
C190   C204    1.333   .     D
C190   H208    1.088   .     S
C190   O197    1.406   1_565 S
H191   C199    1.084   .     S
H192   C200    1.082   .     S
H193   C202    1.083   .     S
H194   C203    1.083   .     S
H195   C204    1.088   .     S
O196   C201    1.411   .     S
O196   C204    1.409   .     S
O197   C190    1.406   1_545 S
C198   C199    1.403   .     A
C198   C203    1.403   .     A
C199   C200    1.388   .     A
C200   C201    1.409   .     A
C201   C202    1.406   .     A
C202   C203    1.406   .     A
H207   C185    1.083   1_565 S
C210   C211    1.404   .     A
C210   C215    1.405   .     A
C211   C212    1.399   .     A
C211   H233    1.083   .     S
C212   C213    1.413   .     A
C212   H231    1.082   .     S
C213   C214    1.399   .     A
C213   O223    1.409   .     S
C214   C215    1.398   .     A
C214   H232    1.083   .     S
C215   H235    1.083   .     S
C216   O223    1.403   .     S
C216   C230    1.334   .     D
C216   H234    1.087   .     S
H217   C225    1.083   .     S
H218   C226    1.081   .     S
H219   C228    1.083   .     S
H220   C229    1.084   .     S
H221   C230    1.086   .     S
O222   C227    1.405   .     S
O222   C230    1.402   .     S
C224   C225    1.405   .     A
C224   C229    1.405   .     A
C225   C226    1.404   .     A
C226   C227    1.412   .     A
C227   C228    1.396   .     A
C228   C229    1.392   .     A
C236   C241    1.405   .     A
C236   C237    1.406   1_556 A
C237   C238    1.398   .     A
C237   H259    1.083   .     S
C237   C236    1.406   1_554 A
C238   C239    1.403   .     A
C238   H257    1.083   .     S
C239   C240    1.399   .     A
C239   O249    1.399   .     S
C240   H258    1.083   .     S
C240   C241    1.399   1_554 A
C241   H261    1.083   .     S
C241   C240    1.399   1_556 A
C242   O249    1.405   .     S
C242   C256    1.333   .     D
C242   H260    1.088   .     S
H243   C251    1.083   .     S
H244   C252    1.083   .     S
H245   C254    1.083   .     S
H246   C255    1.083   .     S
H247   C256    1.089   .     S
O248   C253    1.402   .     S
O248   C256    1.407   .     S
C250   C251    1.405   .     A
C250   C255    1.405   .     A
C251   C252    1.403   .     A
C252   C253    1.402   .     A
C253   C254    1.403   .     A
C254   C255    1.393   .     A
C262   C263    1.405   .     A
C262   C267    1.406   .     A
C263   C264    1.391   .     A
C263   H285    1.083   .     S
C264   C265    1.411   .     A
C264   H283    1.082   .     S
C265   C266    1.404   .     A
C265   O275    1.413   .     S
C266   C267    1.405   .     A
C266   H284    1.083   .     S
C267   H287    1.083   .     S
C268   O275    1.407   .     S
C268   C282    1.334   .     D
C268   H286    1.088   .     S
H269   C277    1.083   1_655 S
H270   C278    1.083   .     S
H271   C280    1.081   .     S
H272   C281    1.083   .     S
H273   C282    1.087   .     S
O274   C279    1.404   .     S
O274   C282    1.404   .     S
C276   C277    1.403   1_655 D
C276   C281    1.405   1_655 S
C277   C278    1.397   .     A
C277   H269    1.083   1_455 S
C277   C276    1.403   1_455 D
C278   C279    1.401   .     A
C279   C280    1.408   .     A
C280   C281    1.398   .     A
C281   C276    1.405   1_455 S
C288   C289    1.403   .     A
C288   C293    1.403   .     A
C289   C290    1.401   .     A
C289   H311    1.083   .     S
C290   C291    1.402   1_545 A
C290   H309    1.082   1_545 S
C291   O301    1.408   .     S
C291   C290    1.402   1_565 A
C291   C292    1.409   1_565 A
C292   C293    1.395   .     A
C292   H310    1.081   .     S
C292   C291    1.409   1_545 A
C293   H313    1.083   .     S
C294   O301    1.407   .     S
C294   C308    1.333   .     D
C294   H312    1.087   .     S
H295   C303    1.083   .     S
H296   C304    1.083   .     S
H297   C306    1.082   .     S
H298   C307    1.083   .     S
H299   C308    1.088   .     S
O300   C305    1.405   .     S
O300   C308    1.406   1_455 S
C302   C307    1.406   .     A
C302   C303    1.404   1_455 A
C303   C304    1.400   .     A
C303   C302    1.404   1_655 A
C304   C305    1.401   1_655 A
C305   C306    1.407   .     A
C305   C304    1.401   1_455 A
C306   C307    1.396   .     A
C308   O300    1.406   1_655 S
H309   C290    1.082   1_565 S
C314   C315    1.403   .     A
C314   C319    1.403   .     A
C315   C316    1.394   .     A
C315   H337    1.083   .     S
C316   C317    1.413   .     A
C316   H335    1.082   .     S
C317   C318    1.405   .     A
C317   O327    1.414   1_455 S
C318   C319    1.404   .     A
C318   H336    1.083   1_455 S
C319   H339    1.084   .     S
C320   H338    1.088   .     S
C320   O327    1.406   1_455 S
C320   C334    1.337   1_455 D
H321   C329    1.083   .     S
H322   C330    1.082   .     S
H323   C332    1.083   1_455 S
H324   C333    1.083   .     S
H325   C334    1.087   .     S
O326   C331    1.404   .     S
O326   C334    1.402   .     S
O327   C317    1.414   1_655 S
O327   C320    1.406   1_655 S
C328   C329    1.408   .     A
C328   C333    1.404   .     A
C329   C330    1.404   .     A
C330   C331    1.409   .     A
C331   C332    1.398   .     A
C332   C333    1.394   .     A
C332   H323    1.083   1_655 S
C334   C320    1.337   1_655 D
H336   C318    1.083   1_655 S
C340   C345    1.408   .     A
C340   C341    1.407   1_554 A
C341   C342    1.401   .     A
C341   H363    1.084   .     S
C341   C340    1.407   1_556 A
C342   H361    1.082   .     S
C342   C343    1.407   1_556 A
C343   C344    1.397   .     A
C343   O353    1.402   .     S
C343   C342    1.407   1_554 A
C344   C345    1.396   .     A
C344   H362    1.082   .     S
C345   H365    1.084   .     S
C346   C360    1.332   .     D
C346   H364    1.089   .     S
C346   O353    1.400   1_556 S
H347   C355    1.084   1_554 S
H348   C356    1.082   1_554 S
H349   C358    1.083   .     S
H350   C359    1.084   .     S
H351   C360    1.089   1_554 S
O352   C357    1.400   .     S
O352   C360    1.400   .     S
O353   C346    1.400   1_554 S
C354   C355    1.406   .     A
C354   C359    1.408   1_455 A
C355   H347    1.084   1_556 S
C355   C356    1.397   1_455 A
C356   C357    1.405   .     A
C356   H348    1.082   1_556 S
C356   C355    1.397   1_655 A
C357   C358    1.399   .     A
C358   C359    1.399   .     A
C359   C354    1.408   1_655 A
C360   H351    1.089   1_556 S
C366   C367    1.404   .     A
C366   C371    1.403   .     A
C367   C368    1.396   .     A
C367   H389    1.083   .     S
C368   C369    1.411   .     A
C368   H387    1.082   .     S
C369   C370    1.401   .     A
C369   O379    1.408   .     S
C370   C371    1.398   .     A
C370   H388    1.083   .     S
C371   H391    1.083   .     S
C372   O379    1.405   .     S
C372   C386    1.333   .     D
C372   H390    1.086   .     S
H373   C381    1.083   .     S
H374   C382    1.083   .     S
H375   C384    1.083   .     S
H376   C385    1.083   .     S
H377   C386    1.089   .     S
O378   C383    1.399   .     S
O378   C386    1.403   .     S
C380   C381    1.406   .     A
C380   C385    1.407   .     A
C381   C382    1.401   .     A
C382   C383    1.406   .     A
C383   C384    1.396   .     A
C384   C385    1.395   .     A
