data_lcy+N123+E229
_audit_creation_date              2025-01-21
_audit_creation_method            'Materials Studio'
_symmetry_space_group_name_H-M    'P1'
_symmetry_Int_Tables_number       1
_symmetry_cell_setting            triclinic
loop_
_symmetry_equiv_pos_as_xyz
  x,y,z
_cell_length_a                    39.3057
_cell_length_b                    34.0684
_cell_length_c                    39.1818
_cell_angle_alpha                 91.4612
_cell_angle_beta                  100.0079
_cell_angle_gamma                 93.8164
loop_
_atom_site_label
_atom_site_type_symbol
_atom_site_fract_x
_atom_site_fract_y
_atom_site_fract_z
_atom_site_U_iso_or_equiv
_atom_site_adp_type
_atom_site_occupancy
Ce0    Ce    0.14498   0.62951   0.85685   0.00000  Uiso   1.00
Ce1    Ce    0.14892   0.65375   0.93015   0.00000  Uiso   1.00
C2     C     0.20223   0.69950   0.91741   0.00000  Uiso   1.00
C3     C     0.19218   0.59860   0.82305   0.00000  Uiso   1.00
C4     C     0.10459   0.70577   0.87037   0.00000  Uiso   1.00
C5     C     0.09104   0.58440   0.86904   0.00000  Uiso   1.00
C6     C     0.10032   0.67897   0.96499   0.00000  Uiso   1.00
C7     C     0.18951   0.57810   0.91844   0.00000  Uiso   1.00
O8     O     0.19322   0.69980   0.94598   0.00000  Uiso   1.00
O9     O     0.18270   0.67353   0.89167   0.00000  Uiso   1.00
O10    O     0.17648   0.62898   0.81277   0.00000  Uiso   1.00
O11    O     0.18378   0.58420   0.85060   0.00000  Uiso   1.00
O12    O     0.11071   0.68174   0.84664   0.00000  Uiso   1.00
O13    O     0.11509   0.70134   0.90316   0.00000  Uiso   1.00
O14    O     0.10040   0.58418   0.84064   0.00000  Uiso   1.00
O15    O     0.11089   0.61007   0.89495   0.00000  Uiso   1.00
O16    O     0.11868   0.65049   0.97461   0.00000  Uiso   1.00
O17    O     0.10746   0.69595   0.93798   0.00000  Uiso   1.00
O18    O     0.18354   0.60302   0.94134   0.00000  Uiso   1.00
O19    O     0.17845   0.58132   0.88547   0.00000  Uiso   1.00
Ce20   Ce    0.62339   0.91104   0.11971   0.00000  Uiso   1.00
Ce21   Ce    0.65389   0.84214   0.09277   0.00000  Uiso   1.00
C22    C     0.59067   0.84062   0.05303   0.00000  Uiso   1.00
C23    C     0.55947   0.92466   0.13154   0.00000  Uiso   1.00
C24    C     0.68097   0.92618   0.06916   0.00000  Uiso   1.00
C25    C     0.67547   0.90556   0.17202   0.00000  Uiso   1.00
C26    C     0.68120   0.78220   0.06373   0.00000  Uiso   1.00
C27    C     0.59913   0.82148   0.14224   0.00000  Uiso   1.00
O28    O     0.61087   0.81547   0.04986   0.00000  Uiso   1.00
O29    O     0.60695   0.87498   0.06995   0.00000  Uiso   1.00
O30    O     0.57578   0.94660   0.11292   0.00000  Uiso   1.00
O31    O     0.57548   0.89494   0.14357   0.00000  Uiso   1.00
O32    O     0.66191   0.94241   0.08861   0.00000  Uiso   1.00
O33    O     0.68181   0.88865   0.06457   0.00000  Uiso   1.00
O34    O     0.65453   0.93085   0.17205   0.00000  Uiso   1.00
O35    O     0.66984   0.87991   0.14254   0.00000  Uiso   1.00
O36    O     0.69496   0.79817   0.09314   0.00000  Uiso   1.00
O37    O     0.65229   0.79499   0.05008   0.00000  Uiso   1.00
O38    O     0.62108   0.80673   0.12552   0.00000  Uiso   1.00
O39    O     0.59496   0.85896   0.14404   0.00000  Uiso   1.00
Ce40   Ce    0.86761   0.14775   0.58989   0.00000  Uiso   1.00
Ce41   Ce    0.81635   0.11502   0.64044   0.00000  Uiso   1.00
C42    C     0.78738   0.12020   0.57311   0.00000  Uiso   1.00
C43    C     0.92119   0.17781   0.56110   0.00000  Uiso   1.00
C44    C     0.89088   0.07768   0.64062   0.00000  Uiso   1.00
C45    C     0.88859   0.17711   0.65660   0.00000  Uiso   1.00
C46    C     0.78074   0.08432   0.68639   0.00000  Uiso   1.00
C47    C     0.81551   0.20443   0.59960   0.00000  Uiso   1.00
O48    O     0.77223   0.12853   0.59695   0.00000  Uiso   1.00
O49    O     0.81925   0.10453   0.58394   0.00000  Uiso   1.00
O50    O     0.89897   0.15138   0.54551   0.00000  Uiso   1.00
O51    O     0.91624   0.18816   0.59112   0.00000  Uiso   1.00
O52    O     0.89483   0.09474   0.61253   0.00000  Uiso   1.00
O53    O     0.86812   0.08643   0.65921   0.00000  Uiso   1.00
O54    O     0.90742   0.17791   0.63504   0.00000  Uiso   1.00
O55    O     0.85438   0.16780   0.64154   0.00000  Uiso   1.00
O56    O     0.79668   0.11867   0.69098   0.00000  Uiso   1.00
O57    O     0.78356   0.06492   0.65848   0.00000  Uiso   1.00
O58    O     0.81978   0.18529   0.62876   0.00000  Uiso   1.00
O59    O     0.83338   0.19701   0.57612   0.00000  Uiso   1.00
Ce60   Ce    0.39357   0.40267   0.39132   0.00000  Uiso   1.00
Ce61   Ce    0.34626   0.32857   0.39601   0.00000  Uiso   1.00
C62    C     0.41482   0.32683   0.42870   0.00000  Uiso   1.00
C63    C     0.43377   0.46776   0.38361   0.00000  Uiso   1.00
C64    C     0.32924   0.41020   0.43303   0.00000  Uiso   1.00
C65    C     0.34594   0.40718   0.33430   0.00000  Uiso   1.00
C66    C     0.30360   0.26341   0.39582   0.00000  Uiso   1.00
C67    C     0.40800   0.32395   0.34841   0.00000  Uiso   1.00
O68    O     0.39916   0.30027   0.41011   0.00000  Uiso   1.00
O69    O     0.39427   0.35712   0.43205   0.00000  Uiso   1.00
O70    O     0.44046   0.44545   0.40933   0.00000  Uiso   1.00
O71    O     0.40615   0.45719   0.36185   0.00000  Uiso   1.00
O72    O     0.35499   0.42924   0.42227   0.00000  Uiso   1.00
O73    O     0.32066   0.37268   0.42754   0.00000  Uiso   1.00
O74    O     0.37039   0.43224   0.34121   0.00000  Uiso   1.00
O75    O     0.34632   0.37734   0.35795   0.00000  Uiso   1.00
O76    O     0.30153   0.28625   0.37039   0.00000  Uiso   1.00
O77    O     0.32777   0.27350   0.42146   0.00000  Uiso   1.00
O78    O     0.38244   0.30468   0.35954   0.00000  Uiso   1.00
O79    O     0.41864   0.36016   0.35793   0.00000  Uiso   1.00
C80    C     0.49464   0.85504   0.04015   0.00000  Uiso   1.00
C81    C     0.48112   0.81681   0.02876   0.00000  Uiso   1.00
C82    C     0.50299   0.78831   0.02155   0.00000  Uiso   1.00
C83    C     0.53875   0.79690   0.02738   0.00000  Uiso   1.00
C84    C     0.55302   0.83425   0.04069   0.00000  Uiso   1.00
C85    C     0.53079   0.86349   0.04638   0.00000  Uiso   1.00
C86    C     0.47076   0.88603   0.04710   0.00000  Uiso   1.00
H87    H     0.45373   0.80866   0.02574   0.00000  Uiso   1.00
H88    H     0.49220   0.75914   0.01224   0.00000  Uiso   1.00
H89    H     0.55530   0.77380   0.02287   0.00000  Uiso   1.00
H90    H     0.54160   0.89232   0.05675   0.00000  Uiso   1.00
H91    H     0.45765   0.87749   0.06906   0.00000  Uiso   1.00
H92    H     0.48605   0.91423   0.05572   0.00000  Uiso   1.00
C93    C     0.29328   0.73961   0.91413   0.00000  Uiso   1.00
C94    C     0.26531   0.71531   0.92146   0.00000  Uiso   1.00
C95    C     0.32984   0.72916   0.92624   0.00000  Uiso   1.00
C96    C     0.37046   0.78274   0.95325   0.00000  Uiso   1.00
C97    C     0.37710   0.81104  -0.01516   0.00000  Uiso   1.00
C98    C     0.28677   0.77405   0.89581   0.00000  Uiso   1.00
C99    C     0.25269   0.78357   0.88439   0.00000  Uiso   1.00
C100   C     0.23124   0.72513   0.91019   0.00000  Uiso   1.00
H101   H     0.30796   0.79343   0.89016   0.00000  Uiso   1.00
H102   H     0.24782   0.80999   0.87013   0.00000  Uiso   1.00
H103   H     0.19855   0.76657   0.88207   0.00000  Uiso   1.00
H104   H     0.26992   0.68872   0.93574   0.00000  Uiso   1.00
H105   H     0.34545   0.73379   0.90534   0.00000  Uiso   1.00
C106   C     0.41222   0.87173   0.01301   0.00000  Uiso   1.00
C107   C     0.40632   0.84209  -0.01772   0.00000  Uiso   1.00
H108   H     0.39480   0.76916   0.95018   0.00000  Uiso   1.00
H109   H     0.35303   0.82581  -0.01346   0.00000  Uiso   1.00
H110   H     0.38431   0.79412   0.00862   0.00000  Uiso   1.00
H111   H     0.36127   0.79948   0.92982   0.00000  Uiso   1.00
H112   H     0.33005   0.69735   0.93180   0.00000  Uiso   1.00
H113   H     0.39191   0.89303   0.00836   0.00000  Uiso   1.00
H114   H     0.40916   0.85653   0.03720   0.00000  Uiso   1.00
N115   N     0.44624   0.89333   0.01538   0.00000  Uiso   1.00
N116   N     0.34439   0.75175   0.95837   0.00000  Uiso   1.00
C117   C     0.22492   0.75904   0.89127   0.00000  Uiso   1.00
C118   C     0.44921   0.24300   0.30461   0.00000  Uiso   1.00
C119   C     0.46882   0.26570   0.28455   0.00000  Uiso   1.00
C120   C     0.46731   0.30646   0.28419   0.00000  Uiso   1.00
C121   C     0.44681   0.32509   0.30438   0.00000  Uiso   1.00
C122   C     0.42745   0.30319   0.32525   0.00000  Uiso   1.00
C123   C     0.42838   0.26190   0.32485   0.00000  Uiso   1.00
C124   C     0.45221   0.19914   0.30550   0.00000  Uiso   1.00
H125   H     0.48546   0.25180   0.26933   0.00000  Uiso   1.00
H126   H     0.48240   0.32375   0.26854   0.00000  Uiso   1.00
H127   H     0.44613   0.35675   0.30372   0.00000  Uiso   1.00
H128   H     0.41398   0.24465   0.34113   0.00000  Uiso   1.00
H129   H     0.47913   0.19418   0.31809   0.00000  Uiso   1.00
H130   H     0.43396   0.18503   0.32105   0.00000  Uiso   1.00
C131   C     0.48388  -0.01893   0.14843   0.00000  Uiso   1.00
C132   C     0.51568   0.97232   0.13934   0.00000  Uiso   1.00
C133   C     0.47422   0.02297   0.15062   0.00000  Uiso   1.00
C134   C     0.46159   0.07372   0.18972   0.00000  Uiso   1.00
C135   C     0.46384   0.08562   0.22800   0.00000  Uiso   1.00
C136   C     0.46123   0.95025   0.15615   0.00000  Uiso   1.00
C137   C     0.47048   0.91137   0.15540   0.00000  Uiso   1.00
C138   C     0.52527   0.93329   0.13909   0.00000  Uiso   1.00
H139   H     0.43650  -0.04358   0.16295   0.00000  Uiso   1.00
H140   H     0.45290   0.88778   0.16143   0.00000  Uiso   1.00
H141   H     0.50929   0.87260   0.14691   0.00000  Uiso   1.00
H142   H     0.53344  -0.00402   0.13359   0.00000  Uiso   1.00
H143   H     0.44827   0.02524   0.13441   0.00000  Uiso   1.00
C144   C     0.45506   0.14139   0.26921   0.00000  Uiso   1.00
C145   C     0.45151   0.12693   0.23150   0.00000  Uiso   1.00
H146   H     0.47803   0.09533   0.17768   0.00000  Uiso   1.00
H147   H     0.44736   0.06426   0.24016   0.00000  Uiso   1.00
H148   H     0.49119   0.08526   0.24143   0.00000  Uiso   1.00
H149   H     0.43419   0.07375   0.17626   0.00000  Uiso   1.00
H150   H     0.49317   0.04315   0.14039   0.00000  Uiso   1.00
H151   H     0.43806   0.12211   0.28260   0.00000  Uiso   1.00
H152   H     0.48250   0.14009   0.28199   0.00000  Uiso   1.00
N153   N     0.44480   0.18190   0.27008   0.00000  Uiso   1.00
N154   N     0.47371   0.03424   0.18686   0.00000  Uiso   1.00
C155   C     0.50248   0.90289   0.14722   0.00000  Uiso   1.00
C156   C     0.75150   0.27257   0.55410   0.00000  Uiso   1.00
C157   C     0.74092   0.29127   0.58242   0.00000  Uiso   1.00
C158   C     0.75524   0.28233   0.61630   0.00000  Uiso   1.00
C159   C     0.78004   0.25449   0.62220   0.00000  Uiso   1.00
C160   C     0.79107   0.23573   0.59415   0.00000  Uiso   1.00
C161   C     0.77669   0.24505   0.56012   0.00000  Uiso   1.00
C162   C     0.73595   0.28171   0.51758   0.00000  Uiso   1.00
H163   H     0.72149   0.31260   0.57826   0.00000  Uiso   1.00
H164   H     0.74693   0.29684   0.63803   0.00000  Uiso   1.00
H165   H     0.79053   0.24761   0.64862   0.00000  Uiso   1.00
H166   H     0.78438   0.23014   0.53820   0.00000  Uiso   1.00
H167   H     0.72934   0.31299   0.51638   0.00000  Uiso   1.00
H168   H     0.75545   0.27874   0.50046   0.00000  Uiso   1.00
C169   C     0.50874   0.30144   0.44973   0.00000  Uiso   1.00
C170   C     0.47362   0.30041   0.43396   0.00000  Uiso   1.00
C171   C     0.53278   0.27324   0.43834   0.00000  Uiso   1.00
C172   C     0.57915   0.23365   0.46486   0.00000  Uiso   1.00
C173   C     0.60897   0.26301   0.48152   0.00000  Uiso   1.00
C174   C     0.52160   0.32924   0.47672   0.00000  Uiso   1.00
C175   C     0.49972   0.35536   0.48812   0.00000  Uiso   1.00
C176   C     0.45155   0.32695   0.44528   0.00000  Uiso   1.00
H177   H     0.54860   0.33051   0.48911   0.00000  Uiso   1.00
H178   H     0.50972   0.37630   0.50931   0.00000  Uiso   1.00
H179   H     0.44836   0.37483   0.48178   0.00000  Uiso   1.00
H180   H     0.46363   0.27931   0.41284   0.00000  Uiso   1.00
H181   H     0.55420   0.29072   0.42934   0.00000  Uiso   1.00
C182   C     0.67346   0.27283   0.50220   0.00000  Uiso   1.00
C183   C     0.64340   0.24361   0.48653   0.00000  Uiso   1.00
H184   H     0.58078   0.20586   0.47913   0.00000  Uiso   1.00
H185   H     0.61054   0.28844   0.46449   0.00000  Uiso   1.00
H186   H     0.60410   0.27390   0.50716   0.00000  Uiso   1.00
H187   H     0.58105   0.22644   0.43739   0.00000  Uiso   1.00
H188   H     0.51920   0.25367   0.41636   0.00000  Uiso   1.00
H189   H     0.67376   0.29841   0.48515   0.00000  Uiso   1.00
H190   H     0.66985   0.28290   0.52846   0.00000  Uiso   1.00
N191   N     0.70607   0.25388   0.50464   0.00000  Uiso   1.00
N192   N     0.54576   0.24910   0.46759   0.00000  Uiso   1.00
C193   C     0.46492   0.35434   0.47247   0.00000  Uiso   1.00
C194   C     0.74881   0.02587   0.75708   0.00000  Uiso   1.00
C195   C     0.71881   0.04508   0.75994   0.00000  Uiso   1.00
C196   C     0.70932   0.07636   0.73884   0.00000  Uiso   1.00
C197   C     0.72961   0.08881   0.71471   0.00000  Uiso   1.00
C198   C     0.75922   0.06950   0.71100   0.00000  Uiso   1.00
C199   C     0.76876   0.03787   0.73206   0.00000  Uiso   1.00
C200   C     0.75930  -0.00686   0.78097   0.00000  Uiso   1.00
H201   H     0.70293   0.03610   0.77876   0.00000  Uiso   1.00
H202   H     0.68635   0.09124   0.74140   0.00000  Uiso   1.00
H203   H     0.72223   0.11352   0.69884   0.00000  Uiso   1.00
H204   H     0.79200   0.02340   0.72954   0.00000  Uiso   1.00
H205   H     0.73883  -0.03156   0.77577   0.00000  Uiso   1.00
H206   H     0.78365   0.98143   0.77566   0.00000  Uiso   1.00
C207   C     0.71279   1.00003   0.00912   0.00000  Uiso   1.00
C208   C     0.69046   0.97774   0.02688   0.00000  Uiso   1.00
C209   C     0.69844   1.02587  -0.01969   0.00000  Uiso   1.00
C210   C     0.72385   0.01680   0.92852   0.00000  Uiso   1.00
C211   C     0.71931   0.99369   0.89392   0.00000  Uiso   1.00
C212   C     0.74871   0.99695   0.01768   0.00000  Uiso   1.00
C213   C     0.76208   0.97101   0.04275   0.00000  Uiso   1.00
C214   C     0.70395   0.95151   0.05193   0.00000  Uiso   1.00
H215   H     0.76639   1.01451   0.00491   0.00000  Uiso   1.00
H216   H     0.78976   0.96855   0.04906   0.00000  Uiso   1.00
H217   H     0.75049   0.92753   0.07854   0.00000  Uiso   1.00
H218   H     0.66268   0.97977   0.02043   0.00000  Uiso   1.00
H219   H     0.71456   0.05421  -0.01820   0.00000  Uiso   1.00
C220   C     0.74275  -0.01245   0.83781   0.00000  Uiso   1.00
C221   C     0.74641   0.00908   0.87297   0.00000  Uiso   1.00
H222   H     0.72345   0.04884   0.92361   0.00000  Uiso   1.00
H223   H     0.72214   0.96193   0.89873   0.00000  Uiso   1.00
H224   H     0.69299   0.99727   0.87900   0.00000  Uiso   1.00
H225   H     0.74920   0.01084   0.94430   0.00000  Uiso   1.00
H226   H     0.67211   0.03362  -0.01660   0.00000  Uiso   1.00
H227   H     0.75039   0.95696   0.84170   0.00000  Uiso   1.00
H228   H     0.71533  -0.01305   0.82453   0.00000  Uiso   1.00
N229   N     0.76540   0.00827   0.81714   0.00000  Uiso   1.00
N230   N     0.69557   1.00462   0.94675   0.00000  Uiso   1.00
C231   C     0.73980   0.94796   0.05948   0.00000  Uiso   1.00
C232   C     0.78100   0.12440   0.47593   0.00000  Uiso   1.00
C233   C     0.75133   0.14530   0.46705   0.00000  Uiso   1.00
C234   C     0.73323   0.15745   0.49265   0.00000  Uiso   1.00
C235   C     0.74444   0.14864   0.52725   0.00000  Uiso   1.00
C236   C     0.77418   0.12789   0.53654   0.00000  Uiso   1.00
C237   C     0.79242   0.11600   0.51074   0.00000  Uiso   1.00
C238   C     0.79800   0.10733   0.44809   0.00000  Uiso   1.00
H239   H     0.74196   0.15162   0.44024   0.00000  Uiso   1.00
H240   H     0.71025   0.17336   0.48559   0.00000  Uiso   1.00
H241   H     0.73009   0.15833   0.54673   0.00000  Uiso   1.00
H242   H     0.81522   0.09964   0.51753   0.00000  Uiso   1.00
H243   H     0.79713   0.12787   0.42637   0.00000  Uiso   1.00
H244   H     0.82563   0.10290   0.45843   0.00000  Uiso   1.00
C245   C     0.72658   0.90910   0.26346   0.00000  Uiso   1.00
C246   C     0.70171   0.91690   0.23456   0.00000  Uiso   1.00
C247   C     0.72287   0.92305   0.29920   0.00000  Uiso   1.00
C248   C     0.74914   0.96373   0.34886   0.00000  Uiso   1.00
C249   C     0.77729  -0.00378   0.36195   0.00000  Uiso   1.00
C250   C     0.75403   0.88627   0.25897   0.00000  Uiso   1.00
C251   C     0.75608   0.87056   0.22618   0.00000  Uiso   1.00
C252   C     0.70340   0.90069   0.20163   0.00000  Uiso   1.00
H253   H     0.77348   0.88012   0.28097   0.00000  Uiso   1.00
H254   H     0.77707   0.85257   0.22294   0.00000  Uiso   1.00
H255   H     0.73218   0.86399   0.17267   0.00000  Uiso   1.00
H256   H     0.68035   0.93433   0.23794   0.00000  Uiso   1.00
H257   H     0.72174   0.89704   0.31568   0.00000  Uiso   1.00
C258   C     0.79315   0.05143   0.40792   0.00000  Uiso   1.00
C259   C     0.77070   0.01385   0.39610   0.00000  Uiso   1.00
H260   H     0.72335   0.97563   0.34853   0.00000  Uiso   1.00
H261   H     0.80316   0.98407   0.36590   0.00000  Uiso   1.00
H262   H     0.77647   0.01941   0.34244   0.00000  Uiso   1.00
H263   H     0.75183   0.93868   0.36662   0.00000  Uiso   1.00
H264   H     0.69835   0.93791   0.29822   0.00000  Uiso   1.00
H265   H     0.82024   0.04409   0.41706   0.00000  Uiso   1.00
H266   H     0.79218   0.07166   0.38603   0.00000  Uiso   1.00
N267   N     0.77928   0.06963   0.43616   0.00000  Uiso   1.00
N268   N     0.75237   0.95035   0.31388   0.00000  Uiso   1.00
C269   C     0.73067   0.87729   0.19770   0.00000  Uiso   1.00
C270   C     0.28761   0.45037   0.50559   0.00000  Uiso   1.00
C271   C     0.26165   0.47134   0.48638   0.00000  Uiso   1.00
C272   C     0.25916   0.47388   0.45053   0.00000  Uiso   1.00
C273   C     0.28205   0.45482   0.43335   0.00000  Uiso   1.00
C274   C     0.30747   0.43285   0.45194   0.00000  Uiso   1.00
C275   C     0.31046   0.43092   0.48811   0.00000  Uiso   1.00
C276   C     0.28902   0.44635   0.54399   0.00000  Uiso   1.00
H277   H     0.24324   0.48560   0.49919   0.00000  Uiso   1.00
H278   H     0.23903   0.49004   0.43594   0.00000  Uiso   1.00
H279   H     0.27936   0.45628   0.40543   0.00000  Uiso   1.00
H280   H     0.32996   0.41366   0.50244   0.00000  Uiso   1.00
H281   H     0.26646   0.42625   0.54739   0.00000  Uiso   1.00
H282   H     0.31318   0.43311   0.55595   0.00000  Uiso   1.00
C283   C     0.24620   0.57437   0.75480   0.00000  Uiso   1.00
C284   C     0.22092   0.59066   0.77113   0.00000  Uiso   1.00
C285   C     0.24925   0.58373   0.71807   0.00000  Uiso   1.00
C286   C     0.25679   0.55375   0.66335   0.00000  Uiso   1.00
C287   C     0.26495   0.51463   0.64792   0.00000  Uiso   1.00
C288   C     0.26916   0.54929   0.77324   0.00000  Uiso   1.00
C289   C     0.26633   0.53967   0.80707   0.00000  Uiso   1.00
C290   C     0.21831   0.58144   0.80541   0.00000  Uiso   1.00
H291   H     0.28900   0.53678   0.76121   0.00000  Uiso   1.00
H292   H     0.28388   0.51995   0.82095   0.00000  Uiso   1.00
H293   H     0.23948   0.54789   0.84947   0.00000  Uiso   1.00
H294   H     0.20326   0.61025   0.75716   0.00000  Uiso   1.00
H295   H     0.27446   0.60086   0.71871   0.00000  Uiso   1.00
C296   C     0.28331   0.48051   0.59704   0.00000  Uiso   1.00
C297   C     0.27400   0.51946   0.61181   0.00000  Uiso   1.00
H298   H     0.23453   0.56576   0.64632   0.00000  Uiso   1.00
H299   H     0.28722   0.50306   0.66531   0.00000  Uiso   1.00
H300   H     0.24201   0.49324   0.64621   0.00000  Uiso   1.00
H301   H     0.27999   0.57485   0.66534   0.00000  Uiso   1.00
H302   H     0.22805   0.60182   0.70626   0.00000  Uiso   1.00
H303   H     0.30802   0.47200   0.61248   0.00000  Uiso   1.00
H304   H     0.26224   0.45760   0.59894   0.00000  Uiso   1.00
N305   N     0.28728   0.48494   0.56086   0.00000  Uiso   1.00
N306   N     0.24782   0.54694   0.69756   0.00000  Uiso   1.00
C307   C     0.24098   0.55548   0.82307   0.00000  Uiso   1.00
C308   C     0.24862   0.51287   0.97547   0.00000  Uiso   1.00
C309   C     0.24675   0.47927   0.95353   0.00000  Uiso   1.00
C310   C     0.22658   0.47803   0.92036   0.00000  Uiso   1.00
C311   C     0.20831   0.51036   0.90871   0.00000  Uiso   1.00
C312   C     0.20973   0.54427   0.93028   0.00000  Uiso   1.00
C313   C     0.22990   0.54517   0.96376   0.00000  Uiso   1.00
C314   C     0.27151   0.51486   0.01065   0.00000  Uiso   1.00
H315   H     0.26109   0.45415   0.96206   0.00000  Uiso   1.00
H316   H     0.22508   0.45192   0.90362   0.00000  Uiso   1.00
H317   H     0.19261   0.50858   0.88305   0.00000  Uiso   1.00
H318   H     0.23139   0.57121   0.98060   0.00000  Uiso   1.00
H319   H     0.29841   0.50979   0.00732   0.00000  Uiso   1.00
H320   H     0.27183   0.54474   0.02302   0.00000  Uiso   1.00
C321   C     0.29724   0.40612   0.24187   0.00000  Uiso   1.00
C322   C     0.32477   0.40846   0.27035   0.00000  Uiso   1.00
C323   C     0.30387   0.40179   0.20530   0.00000  Uiso   1.00
C324   C     0.28821   0.42777   0.14849   0.00000  Uiso   1.00
C325   C     0.28250   0.46568   0.12902   0.00000  Uiso   1.00
C326   C     0.26297   0.40538   0.24778   0.00000  Uiso   1.00
C327   C     0.25621   0.40644   0.28168   0.00000  Uiso   1.00
C328   C     0.31789   0.40832   0.30437   0.00000  Uiso   1.00
H329   H     0.24153   0.40301   0.22612   0.00000  Uiso   1.00
H330   H     0.22975   0.40561   0.28615   0.00000  Uiso   1.00
H331   H     0.27784   0.40766   0.33606   0.00000  Uiso   1.00
H332   H     0.35129   0.40866   0.26608   0.00000  Uiso   1.00
H333   H     0.28891   0.37454   0.19321   0.00000  Uiso   1.00
C334   C     0.27481   0.49355   0.06917   0.00000  Uiso   1.00
C335   C     0.27227   0.45660   0.08999   0.00000  Uiso   1.00
H336   H     0.31136   0.41456   0.14149   0.00000  Uiso   1.00
H337   H     0.26147   0.48108   0.13809   0.00000  Uiso   1.00
H338   H     0.30679   0.48518   0.13455   0.00000  Uiso   1.00
H339   H     0.26513   0.40667   0.14085   0.00000  Uiso   1.00
H340   H     0.33174   0.39828   0.20511   0.00000  Uiso   1.00
H341   H     0.26061   0.51695   0.07961   0.00000  Uiso   1.00
H342   H     0.30267   0.50374   0.07183   0.00000  Uiso   1.00
N343   N     0.25950   0.48467   0.03273   0.00000  Uiso   1.00
N344   N     0.29336   0.43651   0.18593   0.00000  Uiso   1.00
C345   C     0.28352   0.40749   0.30988   0.00000  Uiso   1.00
C346   C     0.23929   0.18827   0.42295   0.00000  Uiso   1.00
C347   C     0.22994   0.16484   0.39229   0.00000  Uiso   1.00
C348   C     0.24487   0.17339   0.36327   0.00000  Uiso   1.00
C349   C     0.26910   0.20551   0.36455   0.00000  Uiso   1.00
C350   C     0.27950   0.22845   0.39533   0.00000  Uiso   1.00
C351   C     0.26490   0.21945   0.42465   0.00000  Uiso   1.00
C352   C     0.22058   0.18100   0.45281   0.00000  Uiso   1.00
H353   H     0.21042   0.14056   0.39068   0.00000  Uiso   1.00
H354   H     0.23713   0.15552   0.33956   0.00000  Uiso   1.00
H355   H     0.27993   0.21228   0.34161   0.00000  Uiso   1.00
H356   H     0.27241   0.23767   0.44820   0.00000  Uiso   1.00
H357   H     0.22515   0.15086   0.46198   0.00000  Uiso   1.00
H358   H     0.23047   0.20261   0.47464   0.00000  Uiso   1.00
C359   C     0.99156   0.19411   0.50669   0.00000  Uiso   1.00
C360   C     0.96362   0.17622   0.52011   0.00000  Uiso   1.00
C361   C     0.00730   0.17334   0.47963   0.00000  Uiso   1.00
C362   C     0.06474   0.16985   0.46553   0.00000  Uiso   1.00
C363   C     0.10303   0.17091   0.48174   0.00000  Uiso   1.00
C364   C     1.00525   0.23200   0.51898   0.00000  Uiso   1.00
C365   C     0.99198   0.25144   0.54496   0.00000  Uiso   1.00
C366   C     0.95008   0.19590   0.54615   0.00000  Uiso   1.00
H367   H     0.02657   0.24627   0.50873   0.00000  Uiso   1.00
H368   H     1.00289   0.28048   0.55459   0.00000  Uiso   1.00
H369   H     0.95477   0.24901   0.57881   0.00000  Uiso   1.00
H370   H     0.95289   0.14697   0.51079   0.00000  Uiso   1.00
H371   H     0.00345   0.19092   0.45588   0.00000  Uiso   1.00
C372   C     0.16401   0.17856   0.46911   0.00000  Uiso   1.00
C373   C     0.12550   0.17596   0.45388   0.00000  Uiso   1.00
H374   H     0.05743   0.14292   0.44849   0.00000  Uiso   1.00
H375   H     0.10940   0.19607   0.50095   0.00000  Uiso   1.00
H376   H     0.10839   0.14308   0.49520   0.00000  Uiso   1.00
H377   H     0.06031   0.19639   0.44979   0.00000  Uiso   1.00
H378   H    -0.00563   0.14348   0.47288   0.00000  Uiso   1.00
H379   H     0.17023   0.20384   0.48820   0.00000  Uiso   1.00
H380   H     0.17044   0.15073   0.48219   0.00000  Uiso   1.00
N381   N     0.18350   0.18455   0.44094   0.00000  Uiso   1.00
N382   N     0.04408   0.16968   0.49319   0.00000  Uiso   1.00
C383   C     0.96472   0.23341   0.55866   0.00000  Uiso   1.00
C384   C     0.95070   1.00925   0.69246   0.00000  Uiso   1.00
C385   C     0.95236   0.98043   0.66655   0.00000  Uiso   1.00
C386   C     0.93383  -0.01662   0.63310   0.00000  Uiso   1.00
C387   C     0.91423   0.01554   0.62488   0.00000  Uiso   1.00
C388   C     0.91225   0.04463   0.65038   0.00000  Uiso   1.00
C389   C     0.93009   0.04120   0.68435   0.00000  Uiso   1.00
C390   C     0.97142   1.00608   0.72822   0.00000  Uiso   1.00
H391   H     0.96782   0.95548   0.67211   0.00000  Uiso   1.00
H392   H     0.93470  -0.03930   0.61347   0.00000  Uiso   1.00
H393   H     0.90000   0.01739   0.59869   0.00000  Uiso   1.00
H394   H     0.92861   0.06376   0.70402   0.00000  Uiso   1.00
H395   H     0.99952   1.00943   0.72674   0.00000  Uiso   1.00
H396   H     0.96638   1.03048   0.74558   0.00000  Uiso   1.00
C397   C     0.03992   0.77344   0.82383   0.00000  Uiso   1.00
C398   C     0.05830   0.73974   0.83190   0.00000  Uiso   1.00
C399   C     0.00963   0.77214   0.79443   0.00000  Uiso   1.00
C400   C     0.98839   0.83240   0.76922   0.00000  Uiso   1.00
C401   C     1.00146   0.87055   0.75475   0.00000  Uiso   1.00
C402   C     0.04940   0.80828   0.84425   0.00000  Uiso   1.00
C403   C     0.07653   0.80930   0.87245   0.00000  Uiso   1.00
C404   C     0.08540   0.74074   0.86061   0.00000  Uiso   1.00
H405   H     0.03597   0.83479   0.83839   0.00000  Uiso   1.00
H406   H     0.08381   0.83618   0.88797   0.00000  Uiso   1.00
H407   H     0.11516   0.77729   0.90304   0.00000  Uiso   1.00
H408   H     0.05083   0.71252   0.81669   0.00000  Uiso   1.00
H409   H    -0.01442   0.77419   0.80552   0.00000  Uiso   1.00
C410   C     0.98939   0.94203   0.74701   0.00000  Uiso   1.00
C411   C     0.97500   0.90137   0.75508   0.00000  Uiso   1.00
H412   H     0.96416   0.82016   0.75213   0.00000  Uiso   1.00
H413   H     0.02651   0.88140   0.77123   0.00000  Uiso   1.00
H414   H     1.00560   0.86508   0.72766   0.00000  Uiso   1.00
H415   H    -0.01712   0.83927   0.79563   0.00000  Uiso   1.00
H416   H     0.00690   0.74349   0.77972   0.00000  Uiso   1.00
H417   H     1.01010   0.95311   0.76882   0.00000  Uiso   1.00
H418   H     1.00059   0.93981   0.72291   0.00000  Uiso   1.00
N419   N     0.96137   0.96869   0.74283   0.00000  Uiso   1.00
N420   N     0.01484   0.80379   0.77070   0.00000  Uiso   1.00
C421   C     0.09423   0.77576   0.88085   0.00000  Uiso   1.00
C422   C     0.01609   0.50658   0.85724   0.00000  Uiso   1.00
C423   C     0.00575   0.50968   0.88967   0.00000  Uiso   1.00
C424   C     0.02277   0.53743   0.91481   0.00000  Uiso   1.00
C425   C     0.05044   0.56204   0.90796   0.00000  Uiso   1.00
C426   C     0.06130   0.55905   0.87575   0.00000  Uiso   1.00
C427   C     0.04393   0.53131   0.85037   0.00000  Uiso   1.00
C428   C     0.99787   0.47651   0.83044   0.00000  Uiso   1.00
H429   H    -0.01550   0.49059   0.89544   0.00000  Uiso   1.00
H430   H     0.01461   0.53976   0.93975   0.00000  Uiso   1.00
H431   H     0.06338   0.58330   0.92786   0.00000  Uiso   1.00
H432   H     0.05221   0.52860   0.82546   0.00000  Uiso   1.00
H433   H     0.96985   0.47344   0.83233   0.00000  Uiso   1.00
H434   H     0.99992   0.48635   0.80397   0.00000  Uiso   1.00
C435   C     0.93752   0.23423   0.73599   0.00000  Uiso   1.00
C436   C     0.92744   0.21965   0.70160   0.00000  Uiso   1.00
C437   C     0.96390   0.26883   0.74378   0.00000  Uiso   1.00
C438   C     1.00726   0.30273   0.78836   0.00000  Uiso   1.00
C439   C     0.98720   0.33393   0.80344   0.00000  Uiso   1.00
C440   C     0.92025   0.21873   0.76182   0.00000  Uiso   1.00
C441   C     0.89396   0.18854   0.75338   0.00000  Uiso   1.00
C442   C     0.90027   0.19027   0.69296   0.00000  Uiso   1.00
H443   H     0.92690   0.23009   0.78844   0.00000  Uiso   1.00
H444   H     0.88114   0.17632   0.77345   0.00000  Uiso   1.00
H445   H     0.86317   0.15128   0.71284   0.00000  Uiso   1.00
H446   H     0.93976   0.23236   0.68128   0.00000  Uiso   1.00
H447   H     0.94944   0.29578   0.74189   0.00000  Uiso   1.00
C448   C     0.99051   0.40637   0.81943   0.00000  Uiso   1.00
C449   C     0.01105   0.37050   0.81613   0.00000  Uiso   1.00
H450   H     0.02931   0.29555   0.80850   0.00000  Uiso   1.00
H451   H     0.96567   0.34220   0.78327   0.00000  Uiso   1.00
H452   H     0.97609   0.32189   0.82552   0.00000  Uiso   1.00
H453   H     0.01830   0.31430   0.76599   0.00000  Uiso   1.00
H454   H     0.98111   0.26976   0.72403   0.00000  Uiso   1.00
H455   H     0.97788   0.41402   0.79302   0.00000  Uiso   1.00
H456   H     0.97037   0.39953   0.83553   0.00000  Uiso   1.00
N457   N     0.01393   0.43910   0.83605   0.00000  Uiso   1.00
N458   N     0.98502   0.26651   0.77835   0.00000  Uiso   1.00
C459   C     0.88377   0.17450   0.71904   0.00000  Uiso   1.00
C460   C     0.74923   0.74202   0.01896   0.00000  Uiso   1.00
C461   C     0.73120   0.70814   1.00175   0.00000  Uiso   1.00
C462   C     0.69729   0.69748   1.00626   0.00000  Uiso   1.00
C463   C     0.68085   0.72101   0.02724   0.00000  Uiso   1.00
C464   C     0.69895   0.75424   0.04525   0.00000  Uiso   1.00
C465   C     0.73333   0.76409   0.04167   0.00000  Uiso   1.00
C466   C     0.78266   0.75820   0.00927   0.00000  Uiso   1.00
H467   H     0.74296   0.69077   0.98403   0.00000  Uiso   1.00
H468   H     0.68329   0.67174   0.99249   0.00000  Uiso   1.00
H469   H     0.65400   0.71364   0.02913   0.00000  Uiso   1.00
H470   H     0.74667   0.79089   0.05432   0.00000  Uiso   1.00
H471   H     0.77674   0.76761   0.98203   0.00000  Uiso   1.00
H472   H     0.79335   0.78455   0.02610   0.00000  Uiso   1.00
C473   C     1.00968   0.69357  -0.02074   0.00000  Uiso   1.00
C474   C     0.03872   0.69286   0.96280   0.00000  Uiso   1.00
C475   C     0.97369   0.69030   0.95818   0.00000  Uiso   1.00
C476   C     0.92082   0.70148   0.97962   0.00000  Uiso   1.00
C477   C     0.89877   0.73335  -0.01015   0.00000  Uiso   1.00
C478   C     0.01436   0.69278   0.01562   0.00000  Uiso   1.00
C479   C     0.04747   0.69122   0.03521   0.00000  Uiso   1.00
C480   C     0.07174   0.68910   0.98241   0.00000  Uiso   1.00
H481   H    -0.00769   0.69261   0.02877   0.00000  Uiso   1.00
H482   H     0.05084   0.69040   0.06319   0.00000  Uiso   1.00
H483   H     0.10131   0.68553   0.03410   0.00000  Uiso   1.00
H484   H     1.03527   0.69196   0.93471   0.00000  Uiso   1.00
H485   H     0.96258   0.65961  -0.04008   0.00000  Uiso   1.00
C486   C     0.84087   0.74670   0.00451   0.00000  Uiso   1.00
C487   C     0.86490   0.71502  -0.00147   0.00000  Uiso   1.00
H488   H     0.90582   0.68389   0.95694   0.00000  Uiso   1.00
H489   H     0.91328   0.75074   0.01281   0.00000  Uiso   1.00
H490   H     0.89305   0.75328   0.96787   0.00000  Uiso   1.00
H491   H     0.92733   0.68193   0.00179   0.00000  Uiso   1.00
H492   H     0.97438   0.69509   0.93036   0.00000  Uiso   1.00
H493   H     0.85358   0.76642   0.02677   0.00000  Uiso   1.00
H494   H     0.83604   0.76405   0.98066   0.00000  Uiso   1.00
N495   N     0.80827   0.72861   0.01204   0.00000  Uiso   1.00
N496   N     0.95269   0.71981   0.97056   0.00000  Uiso   1.00
C497   C     0.07601   0.68873   0.01868   0.00000  Uiso   1.00
C498   C     0.55200   0.72768   0.16554   0.00000  Uiso   1.00
C499   C     0.53145   0.74282   0.18797   0.00000  Uiso   1.00
C500   C     0.53376   0.78312   0.19629   0.00000  Uiso   1.00
C501   C     0.55618   0.80875   0.18193   0.00000  Uiso   1.00
C502   C     0.57680   0.79424   0.15913   0.00000  Uiso   1.00
C503   C     0.57470   0.75347   0.15132   0.00000  Uiso   1.00
C504   C     0.54950   0.68419   0.15686   0.00000  Uiso   1.00
H505   H     0.51378   0.72335   0.19916   0.00000  Uiso   1.00
H506   H     0.51802   0.79455   0.21383   0.00000  Uiso   1.00
H507   H     0.55729   0.83988   0.18868   0.00000  Uiso   1.00
H508   H     0.59022   0.74175   0.13367   0.00000  Uiso   1.00
H509   H     0.52305   0.67540   0.14231   0.00000  Uiso   1.00
H510   H     0.56790   0.67706   0.13944   0.00000  Uiso   1.00
C511   C     0.46982   0.56028   0.34688   0.00000  Uiso   1.00
C512   C     0.44781   0.52725   0.35122   0.00000  Uiso   1.00
C513   C     0.46017   0.58720   0.31759   0.00000  Uiso   1.00
C514   C     0.49792   0.60928   0.27800   0.00000  Uiso   1.00
C515   C     0.50859   0.59861   0.24357   0.00000  Uiso   1.00
C516   C     0.50093   0.56830   0.37039   0.00000  Uiso   1.00
C517   C     0.50962   0.54403   0.39830   0.00000  Uiso   1.00
C518   C     0.45652   0.50272   0.37923   0.00000  Uiso   1.00
H519   H     0.51826   0.59356   0.36722   0.00000  Uiso   1.00
H520   H     0.53347   0.55052   0.41656   0.00000  Uiso   1.00
H521   H     0.49478   0.49306   0.42469   0.00000  Uiso   1.00
H522   H     0.42405   0.52066   0.33271   0.00000  Uiso   1.00
H523   H     0.46703   0.61828   0.32722   0.00000  Uiso   1.00
C524   C     0.53057   0.63495   0.19518   0.00000  Uiso   1.00
C525   C     0.53312   0.63154   0.23412   0.00000  Uiso   1.00
H526   H     0.48260   0.63565   0.27447   0.00000  Uiso   1.00
H527   H     0.52210   0.57092   0.24555   0.00000  Uiso   1.00
H528   H     0.48486   0.59406   0.22338   0.00000  Uiso   1.00
H529   H     0.52130   0.61613   0.29822   0.00000  Uiso   1.00
H530   H     0.43172   0.58454   0.30842   0.00000  Uiso   1.00
H531   H     0.53356   0.60593   0.18294   0.00000  Uiso   1.00
H532   H     0.50452   0.64495   0.18488   0.00000  Uiso   1.00
N533   N     0.55848   0.66300   0.18894   0.00000  Uiso   1.00
N534   N     0.47707   0.57614   0.28860   0.00000  Uiso   1.00
C535   C     0.48750   0.51151   0.40286   0.00000  Uiso   1.00
loop_
_geom_bond_atom_site_label_1
_geom_bond_atom_site_label_2
_geom_bond_distance
_geom_bond_site_symmetry_2
_ccdc_geom_bond_type
Ce0    O9      2.282   .     S
Ce0    O10     2.294   .     S
Ce0    O11     2.279   .     S
Ce0    O12     2.304   .     S
Ce0    O14     2.250   .     S
Ce0    O15     2.256   .     S
Ce0    O19     2.356   .     S
Ce1    O8      2.256   .     S
Ce1    O9      2.263   .     S
Ce1    O13     2.324   .     S
Ce1    O15     2.288   .     S
Ce1    O16     2.274   .     S
Ce1    O17     2.298   .     S
Ce1    O18     2.275   .     S
C2     O8      1.232   .     D
C2     O9      1.408   .     S
C2     C100    1.461   .     S
C3     O10     1.278   .     A
C3     O11     1.282   .     A
C3     C290    1.476   .     S
C4     O12     1.288   .     A
C4     O13     1.295   .     A
C4     C404    1.476   .     S
C5     O14     1.231   .     D
C5     O15     1.412   .     S
C5     C426    1.472   .     S
C6     O16     1.273   .     A
C6     O17     1.283   .     A
C6     C480    1.467   .     S
C7     O18     1.281   .     A
C7     O19     1.299   .     A
C7     C312    1.482   .     S
Ce20   O29     2.250   .     S
Ce20   O30     2.277   .     S
Ce20   O31     2.285   .     S
Ce20   O32     2.326   .     S
Ce20   O34     2.260   .     S
Ce20   O35     2.235   .     S
Ce20   O39     2.345   .     S
Ce21   O28     2.290   .     S
Ce21   O29     2.282   .     S
Ce21   O33     2.283   .     S
Ce21   O35     2.278   .     S
Ce21   O36     2.273   .     S
Ce21   O37     2.279   .     S
Ce21   O38     2.283   .     S
C22    O28     1.224   .     D
C22    O29     1.390   .     S
C22    C84     1.474   .     S
C23    O30     1.276   .     A
C23    O31     1.284   .     A
C23    C138    1.472   .     S
C24    O32     1.296   .     A
C24    O33     1.290   .     A
C24    C214    1.468   .     S
C25    O34     1.231   .     D
C25    O35     1.407   .     S
C25    C252    1.473   .     S
C26    O36     1.277   .     A
C26    O37     1.278   .     A
C26    C464    1.465   .     S
C27    O38     1.289   .     A
C27    O39     1.300   .     A
C27    C502    1.481   .     S
Ce40   O49     2.300   .     S
Ce40   O50     2.301   .     S
Ce40   O51     2.273   .     S
Ce40   O52     2.281   .     S
Ce40   O54     2.316   .     S
Ce40   O55     2.275   .     S
Ce40   O59     2.239   .     S
Ce41   O48     2.290   .     S
Ce41   O49     2.257   .     S
Ce41   O53     2.326   .     S
Ce41   O55     2.255   .     S
Ce41   O56     2.251   .     S
Ce41   O57     2.271   .     S
Ce41   O58     2.448   .     S
C42    O48     1.229   .     D
C42    O49     1.396   .     S
C42    C236    1.473   .     S
C43    O50     1.276   .     A
C43    O51     1.270   .     A
C43    C366    1.473   .     S
C44    O52     1.286   .     A
C44    O53     1.292   .     A
C44    C388    1.468   .     S
C45    O54     1.215   .     D
C45    O55     1.384   .     S
C45    C442    1.468   .     S
C46    O56     1.283   .     A
C46    O57     1.288   .     A
C46    C198    1.467   .     S
C47    O58     1.321   .     A
C47    O59     1.280   .     A
C47    C160    1.477   .     S
Ce60   O69     2.252   .     S
Ce60   O70     2.271   .     S
Ce60   O71     2.283   .     S
Ce60   O72     2.314   .     S
Ce60   O74     2.302   .     S
Ce60   O75     2.188   .     S
Ce60   O79     2.307   .     S
Ce61   O68     2.335   .     S
Ce61   O69     2.293   .     S
Ce61   O73     2.310   .     S
Ce61   O75     2.261   .     S
Ce61   O76     2.270   .     S
Ce61   O77     2.282   .     S
Ce61   O78     2.351   .     S
C62    O68     1.210   .     D
C62    O69     1.370   .     S
C62    C176    1.476   .     S
C63    O70     1.279   .     A
C63    O71     1.283   .     A
C63    C518    1.473   .     S
C64    O72     1.303   .     A
C64    O73     1.303   .     A
C64    C274    1.469   .     S
C65    O74     1.231   .     D
C65    O75     1.392   .     S
C65    C328    1.467   .     S
C66    O76     1.275   .     A
C66    O77     1.280   .     A
C66    C350    1.469   .     S
C67    O78     1.308   .     A
C67    O79     1.300   .     A
C67    C122    1.480   .     S
C80    C81     1.405   .     A
C80    C85     1.408   .     A
C80    C86     1.509   .     S
C81    C82     1.394   .     A
C81    H87     1.079   .     S
C82    C83     1.394   .     A
C82    H88     1.083   .     S
C83    C84     1.405   .     A
C83    H89     1.084   .     S
C84    C85     1.406   .     A
C85    H90     1.084   .     S
C86    H91     1.112   .     S
C86    H92     1.111   .     S
C86    N115    1.472   .     S
C93    C94     1.406   .     A
C93    C95     1.502   .     S
C93    C98     1.406   .     A
C94    C100    1.401   .     A
C94    H104    1.086   .     S
C95    H105    1.114   .     S
C95    H112    1.111   .     S
C95    N116    1.465   .     S
C96    H108    1.113   .     S
C96    H111    1.113   .     S
C96    N116    1.464   .     S
C96    C97     1.524   1_556 S
C97    C107    1.527   .     S
C97    H109    1.112   .     S
C97    H110    1.113   .     S
C97    C96     1.524   1_554 S
C98    C99     1.399   .     A
C98    H101    1.085   .     S
C99    H102    1.082   .     S
C99    C117    1.398   .     A
C100   C117    1.401   .     A
H103   C117    1.086   .     S
C106   C107    1.527   .     S
C106   H113    1.109   .     S
C106   H114    1.113   .     S
C106   N115    1.470   .     S
C118   C119    1.404   .     A
C118   C123    1.409   .     A
C118   C124    1.507   .     S
C119   C120    1.394   .     A
C119   H125    1.082   .     S
C120   C121    1.394   .     A
C120   H126    1.083   .     S
C121   C122    1.406   .     A
C121   H127    1.082   .     S
C122   C123    1.409   .     A
C123   H128    1.083   .     S
C124   H129    1.113   .     S
C124   H130    1.113   .     S
C124   N153    1.467   .     S
C131   C133    1.505   .     S
C131   C132    1.406   1_545 A
C131   C136    1.404   1_545 A
C132   C138    1.407   .     A
C132   C131    1.406   1_565 A
C132   H142    1.085   1_565 S
C133   H143    1.113   .     S
C133   H150    1.113   .     S
C133   N154    1.465   .     S
C134   C135    1.530   .     S
C134   H146    1.115   .     S
C134   H149    1.114   .     S
C134   N154    1.465   .     S
C135   C145    1.529   .     S
C135   H147    1.113   .     S
C135   H148    1.113   .     S
C136   C137    1.398   .     A
C136   C131    1.404   1_565 A
C136   H139    1.083   1_565 S
C137   H140    1.082   .     S
C137   C155    1.397   .     A
C138   C155    1.403   .     A
H139   C136    1.083   1_545 S
H141   C155    1.083   .     S
H142   C132    1.085   1_545 S
C144   C145    1.525   .     S
C144   H151    1.111   .     S
C144   H152    1.112   .     S
C144   N153    1.464   .     S
C156   C157    1.403   .     A
C156   C161    1.403   .     A
C156   C162    1.504   .     S
C157   C158    1.398   .     A
C157   H163    1.084   .     S
C158   C159    1.400   .     A
C158   H164    1.083   .     S
C159   C160    1.404   .     A
C159   H165    1.083   .     S
C160   C161    1.408   .     A
C161   H166    1.085   .     S
C162   H167    1.114   .     S
C162   H168    1.110   .     S
C162   N191    1.468   .     S
C169   C170    1.408   .     A
C169   C171    1.503   .     S
C169   C174    1.404   .     A
C170   C176    1.409   .     A
C170   H180    1.084   .     S
C171   H181    1.111   .     S
C171   H188    1.111   .     S
C171   N192    1.466   .     S
C172   C173    1.532   .     S
C172   H184    1.112   .     S
C172   H187    1.114   .     S
C172   N192    1.466   .     S
C173   C183    1.530   .     S
C173   H185    1.112   .     S
C173   H186    1.114   .     S
C174   C175    1.395   .     A
C174   H177    1.085   .     S
C175   H178    1.082   .     S
C175   C193    1.396   .     A
C176   C193    1.404   .     A
H179   C193    1.083   .     S
C182   C183    1.525   .     S
C182   H189    1.112   .     S
C182   H190    1.112   .     S
C182   N191    1.463   .     S
C194   C195    1.406   .     A
C194   C199    1.410   .     A
C194   C200    1.507   .     S
C195   C196    1.396   .     A
C195   H201    1.083   .     S
C196   C197    1.395   .     A
C196   H202    1.083   .     S
C197   C198    1.402   .     A
C197   H203    1.084   .     S
C198   C199    1.405   .     A
C199   H204    1.084   .     S
C200   H205    1.114   .     S
C200   N229    1.470   .     S
C200   H206    1.111   1_545 S
H206   C200    1.111   1_565 S
C207   C208    1.408   .     A
C207   C209    1.504   .     S
C207   C212    1.405   .     A
C208   C214    1.404   .     A
C208   H218    1.085   .     S
C209   H219    1.114   1_565 S
C209   H226    1.111   1_565 S
C209   N230    1.468   1_554 S
C210   H222    1.114   .     S
C210   H225    1.112   .     S
C210   C211    1.527   1_545 S
C210   N230    1.465   1_545 S
C211   H223    1.112   .     S
C211   H224    1.112   .     S
C211   C210    1.527   1_565 S
C211   C221    1.528   1_565 S
C212   C213    1.396   .     A
C212   H215    1.083   .     S
C213   H216    1.082   .     S
C213   C231    1.396   .     A
C214   C231    1.403   .     A
H217   C231    1.084   .     S
H219   C209    1.114   1_545 S
C220   C221    1.524   .     S
C220   H228    1.111   .     S
C220   N229    1.464   .     S
C220   H227    1.111   1_545 S
C221   C211    1.528   1_545 S
H226   C209    1.111   1_545 S
H227   C220    1.111   1_565 S
N230   C209    1.468   1_556 S
N230   C210    1.465   1_565 S
C232   C233    1.403   .     A
C232   C237    1.403   .     A
C232   C238    1.499   .     S
C233   C234    1.397   .     A
C233   H239    1.083   .     S
C234   C235    1.397   .     A
C234   H240    1.083   .     S
C235   C236    1.405   .     A
C235   H241    1.082   .     S
C236   C237    1.404   .     A
C237   H242    1.084   .     S
C238   H243    1.113   .     S
C238   H244    1.113   .     S
C238   N267    1.461   .     S
C245   C246    1.405   .     A
C245   C247    1.501   .     S
C245   C250    1.404   .     A
C246   C252    1.405   .     A
C246   H256    1.084   .     S
C247   H257    1.113   .     S
C247   H264    1.113   .     S
C247   N268    1.462   .     S
C248   H260    1.115   .     S
C248   H263    1.114   .     S
C248   N268    1.463   .     S
C248   C249    1.524   1_565 S
C249   C259    1.523   .     S
C249   H262    1.111   .     S
C249   C248    1.524   1_545 S
C249   H261    1.111   1_545 S
C250   C251    1.396   .     A
C250   H253    1.083   .     S
C251   H254    1.083   .     S
C251   C269    1.397   .     A
C252   C269    1.404   .     A
H255   C269    1.083   .     S
C258   C259    1.520   .     S
C258   H265    1.110   .     S
C258   H266    1.111   .     S
C258   N267    1.458   .     S
H261   C249    1.111   1_565 S
C270   C271    1.405   .     A
C270   C275    1.409   .     A
C270   C276    1.506   .     S
C271   C272    1.396   .     A
C271   H277    1.083   .     S
C272   C273    1.397   .     A
C272   H278    1.083   .     S
C273   C274    1.401   .     A
C273   H279    1.083   .     S
C274   C275    1.405   .     A
C275   H280    1.084   .     S
C276   H281    1.113   .     S
C276   H282    1.113   .     S
C276   N305    1.467   .     S
C283   C284    1.408   .     A
C283   C285    1.505   .     S
C283   C288    1.405   .     A
C284   C290    1.407   .     A
C284   H294    1.084   .     S
C285   H295    1.112   .     S
C285   H302    1.112   .     S
C285   N306    1.464   .     S
C286   C287    1.526   .     S
C286   H298    1.112   .     S
C286   H301    1.113   .     S
C286   N306    1.464   .     S
C287   C297    1.528   .     S
C287   H299    1.112   .     S
C287   H300    1.112   .     S
C288   C289    1.395   .     A
C288   H291    1.084   .     S
C289   H292    1.083   .     S
C289   C307    1.395   .     A
C290   C307    1.406   .     A
H293   C307    1.083   .     S
C296   C297    1.526   .     S
C296   H303    1.111   .     S
C296   H304    1.113   .     S
C296   N305    1.464   .     S
C308   C309    1.404   .     A
C308   C313    1.407   .     A
C308   C314    1.507   1_556 S
C309   C310    1.398   .     A
C309   H315    1.084   .     S
C310   C311    1.398   .     A
C310   H316    1.084   .     S
C311   C312    1.406   .     A
C311   H317    1.082   .     S
C312   C313    1.408   .     A
C313   H318    1.084   .     S
C314   H319    1.112   .     S
C314   H320    1.114   .     S
C314   N343    1.467   .     S
C314   C308    1.507   1_554 S
C321   C322    1.409   .     A
C321   C323    1.506   .     S
C321   C326    1.405   .     A
C322   C328    1.405   .     A
C322   H332    1.084   .     S
C323   H333    1.114   .     S
C323   H340    1.111   .     S
C323   N344    1.466   .     S
C324   C325    1.526   .     S
C324   H336    1.114   .     S
C324   H339    1.112   .     S
C324   N344    1.465   .     S
C325   C335    1.530   .     S
C325   H337    1.111   .     S
C325   H338    1.112   .     S
C326   C327    1.399   .     A
C326   H329    1.085   .     S
C327   H330    1.083   .     S
C327   C345    1.398   .     A
C328   C345    1.403   .     A
H331   C345    1.087   .     S
C334   C335    1.524   .     S
C334   H341    1.112   .     S
C334   H342    1.113   .     S
C334   N343    1.465   .     S
C346   C347    1.405   .     A
C346   C351    1.406   .     A
C346   C352    1.503   .     S
C347   C348    1.396   .     A
C347   H353    1.083   .     S
C348   C349    1.396   .     A
C348   H354    1.083   .     S
C349   C350    1.404   .     A
C349   H355    1.083   .     S
C350   C351    1.403   .     A
C351   H356    1.084   .     S
C352   H357    1.112   .     S
C352   H358    1.113   .     S
C352   N381    1.465   .     S
C359   C360    1.408   .     A
C359   C364    1.405   .     A
C359   C361    1.502   1_655 S
C360   C366    1.405   .     A
C360   H370    1.084   .     S
C361   H371    1.113   .     S
C361   H378    1.111   .     S
C361   N382    1.465   .     S
C361   C359    1.502   1_455 S
C362   C363    1.526   .     S
C362   H374    1.112   .     S
C362   H377    1.114   .     S
C362   N382    1.463   .     S
C363   C373    1.525   .     S
C363   H375    1.112   .     S
C363   H376    1.111   .     S
C364   C365    1.394   .     A
C364   H367    1.083   1_655 S
C365   H368    1.083   .     S
C365   C383    1.394   .     A
C366   C383    1.406   .     A
H367   C364    1.083   1_455 S
H369   C383    1.083   .     S
C372   C373    1.524   .     S
C372   H379    1.112   .     S
C372   H380    1.112   .     S
C372   N381    1.460   .     S
C384   C385    1.407   .     A
C384   C390    1.504   .     S
C384   C389    1.410   1_565 A
C385   H391    1.082   .     S
C385   C386    1.394   1_565 A
C386   C387    1.394   .     A
C386   H392    1.083   .     S
C386   C385    1.394   1_545 A
C387   C388    1.405   .     A
C387   H393    1.086   .     S
C388   C389    1.404   .     A
C389   H394    1.086   .     S
C389   C384    1.410   1_545 A
C390   H395    1.114   .     S
C390   H396    1.110   .     S
C390   N419    1.468   .     S
C397   C398    1.411   .     A
C397   C399    1.503   .     S
C397   C402    1.406   .     A
C398   C404    1.406   .     A
C398   H408    1.085   .     S
C399   H409    1.112   .     S
C399   H416    1.110   .     S
C399   N420    1.468   .     S
C400   C401    1.525   .     S
C400   H412    1.114   .     S
C400   H415    1.116   1_655 S
C400   N420    1.467   1_655 S
C401   C411    1.528   .     S
C401   H414    1.114   .     S
C401   H413    1.114   1_655 S
C402   C403    1.394   .     A
C402   H405    1.086   .     S
C403   H406    1.080   .     S
C403   C421    1.394   .     A
C404   C421    1.405   .     A
H407   C421    1.086   .     S
C410   C411    1.523   .     S
C410   H417    1.112   .     S
C410   H418    1.112   .     S
C410   N419    1.464   .     S
H413   C401    1.114   1_455 S
H415   C400    1.116   1_455 S
N420   C400    1.467   1_455 S
C422   C423    1.403   .     A
C422   C427    1.404   .     A
C422   C428    1.500   1_455 S
C423   C424    1.397   .     A
C423   H429    1.083   .     S
C424   C425    1.396   .     A
C424   H430    1.082   .     S
C425   C426    1.404   .     A
C425   H431    1.084   .     S
C426   C427    1.407   .     A
C427   H432    1.085   .     S
C428   H433    1.115   .     S
C428   H434    1.113   .     S
C428   C422    1.500   1_655 S
C428   N457    1.464   1_655 S
C435   C436    1.405   .     A
C435   C437    1.506   .     S
C435   C440    1.408   .     A
C436   C442    1.404   .     A
C436   H446    1.086   .     S
C437   H447    1.109   .     S
C437   H454    1.113   .     S
C437   N458    1.467   .     S
C438   C439    1.530   .     S
C438   N458    1.467   .     S
C438   H450    1.111   1_655 S
C438   H453    1.113   1_655 S
C439   H451    1.109   .     S
C439   H452    1.111   .     S
C439   C449    1.526   1_655 S
C440   C441    1.399   .     A
C440   H443    1.085   .     S
C441   H444    1.082   .     S
C441   C459    1.398   .     A
C442   C459    1.402   .     A
H445   C459    1.085   .     S
C448   H455    1.113   .     S
C448   H456    1.111   .     S
C448   C449    1.524   1_655 S
C448   N457    1.460   1_655 S
C449   C439    1.526   1_455 S
C449   C448    1.524   1_455 S
H450   C438    1.111   1_455 S
H453   C438    1.113   1_455 S
N457   C428    1.464   1_455 S
N457   C448    1.460   1_455 S
C460   C465    1.403   .     A
C460   C466    1.504   .     S
C460   C461    1.405   1_554 A
C461   C462    1.400   .     A
C461   H467    1.083   .     S
C461   C460    1.405   1_556 A
C462   H468    1.082   .     S
C462   C463    1.399   1_556 A
C463   C464    1.401   .     A
C463   H469    1.084   .     S
C463   C462    1.399   1_554 A
C464   C465    1.402   .     A
C465   H470    1.085   .     S
C466   H472    1.114   .     S
C466   N495    1.464   .     S
C466   H471    1.112   1_554 S
H471   C466    1.112   1_556 S
C473   C474    1.406   1_654 A
C473   C475    1.505   1_554 S
C473   C478    1.405   1_655 A
C474   C480    1.404   .     A
C474   C473    1.406   1_456 A
C474   H484    1.085   1_455 S
C475   H492    1.111   .     S
C475   N496    1.467   .     S
C475   C473    1.505   1_556 S
C475   H485    1.115   1_556 S
C476   H488    1.113   .     S
C476   N496    1.465   .     S
C476   C477    1.521   1_556 S
C476   H491    1.113   1_556 S
C477   C487    1.528   .     S
C477   H489    1.111   .     S
C477   C476    1.521   1_554 S
C477   H490    1.112   1_554 S
C478   C479    1.396   .     A
C478   H481    1.082   .     S
C478   C473    1.405   1_455 A
C479   H482    1.083   .     S
C479   C497    1.395   .     A
C480   C497    1.402   1_556 A
H483   C497    1.084   .     S
H484   C474    1.085   1_655 S
H485   C475    1.115   1_554 S
C486   C487    1.521   .     S
C486   H493    1.111   .     S
C486   N495    1.464   .     S
C486   H494    1.113   1_554 S
H490   C477    1.112   1_556 S
H491   C476    1.113   1_554 S
H494   C486    1.113   1_556 S
C497   C480    1.402   1_554 A
C498   C499    1.404   .     A
C498   C503    1.404   .     A
C498   C504    1.505   .     S
C499   C500    1.396   .     A
C499   H505    1.083   .     S
C500   C501    1.397   .     A
C500   H506    1.083   .     S
C501   C502    1.408   .     A
C501   H507    1.083   .     S
C502   C503    1.408   .     A
C503   H508    1.084   .     S
C504   H509    1.113   .     S
C504   H510    1.111   .     S
C504   N533    1.467   .     S
C511   C512    1.405   .     A
C511   C513    1.500   .     S
C511   C516    1.403   .     A
C512   C518    1.405   .     A
C512   H522    1.085   .     S
C513   H523    1.115   .     S
C513   H530    1.110   .     S
C513   N534    1.465   .     S
C514   C515    1.523   .     S
C514   H526    1.113   .     S
C514   H529    1.112   .     S
C514   N534    1.462   .     S
C515   C525    1.525   .     S
C515   H527    1.111   .     S
C515   H528    1.112   .     S
C516   C517    1.397   .     A
C516   H519    1.085   .     S
C517   H520    1.082   .     S
C517   C535    1.397   .     A
C518   C535    1.405   .     A
H521   C535    1.084   .     S
C524   C525    1.519   .     S
C524   H531    1.110   .     S
C524   H532    1.112   .     S
C524   N533    1.463   .     S
