data_lcy+N106+E59
_audit_creation_date              2025-01-21
_audit_creation_method            'Materials Studio'
_symmetry_space_group_name_H-M    'P1'
_symmetry_Int_Tables_number       1
_symmetry_cell_setting            triclinic
loop_
_symmetry_equiv_pos_as_xyz
  x,y,z
_cell_length_a                    34.3102
_cell_length_b                    36.2253
_cell_length_c                    35.7767
_cell_angle_alpha                 96.0110
_cell_angle_beta                  96.8713
_cell_angle_gamma                 89.0197
loop_
_atom_site_label
_atom_site_type_symbol
_atom_site_fract_x
_atom_site_fract_y
_atom_site_fract_z
_atom_site_U_iso_or_equiv
_atom_site_adp_type
_atom_site_occupancy
Y0     Y     0.12252   0.64394   0.83639   0.00000  Uiso   1.00
Y1     Y     0.16863   0.58680   0.88920   0.00000  Uiso   1.00
O2     O     0.17813   0.63359   0.80858   0.00000  Uiso   1.00
O3     O     0.13241   0.58198   0.83206   0.00000  Uiso   1.00
C4     C     0.21952   0.54855   0.93372   0.00000  Uiso   1.00
O5     O     0.11413   0.55069   0.87434   0.00000  Uiso   1.00
O6     O     0.10808   0.68686   0.79513   0.00000  Uiso   1.00
O7     O     0.07036   0.64101   0.79185   0.00000  Uiso   1.00
O8     O     0.21190   0.59646   0.84825   0.00000  Uiso   1.00
O9     O     0.17500   0.64764   0.88098   0.00000  Uiso   1.00
O10    O     0.12936   0.68847   0.88646   0.00000  Uiso   1.00
O11    O     0.08001   0.63135   0.87740   0.00000  Uiso   1.00
C12    C     0.20908   0.61524   0.81952   0.00000  Uiso   1.00
O13    O     0.12310   0.61228   0.92432   0.00000  Uiso   1.00
C14    C     0.10439   0.55997   0.84294   0.00000  Uiso   1.00
O15    O     0.20445   0.53580   0.90112   0.00000  Uiso   1.00
O16    O     0.20757   0.58081   0.94377   0.00000  Uiso   1.00
C17    C     0.07752   0.67064   0.77844   0.00000  Uiso   1.00
C18    C     0.08885   0.62345   0.91161   0.00000  Uiso   1.00
C19    C     0.15942   0.67655   0.90264   0.00000  Uiso   1.00
Y20    Y     0.65385   0.86389   0.11423   0.00000  Uiso   1.00
Y21    Y     0.56986   0.89862   0.13107   0.00000  Uiso   1.00
O22    O     0.63149   0.82335   0.15042   0.00000  Uiso   1.00
O23    O     0.59045   0.84664   0.09884   0.00000  Uiso   1.00
C24    C     0.50553   0.93090   0.15709   0.00000  Uiso   1.00
O25    O     0.55042   0.88204   0.06854   0.00000  Uiso   1.00
O26    O     0.71814   0.85562   0.10671   0.00000  Uiso   1.00
O27    O     0.67773   0.81679   0.07721   0.00000  Uiso   1.00
O28    O     0.58527   0.85944   0.17608   0.00000  Uiso   1.00
O29    O     0.63345   0.91561   0.14653   0.00000  Uiso   1.00
O30    O     0.67576   0.88163   0.17616   0.00000  Uiso   1.00
O31    O     0.64182   0.90830   0.07355   0.00000  Uiso   1.00
C32    C     0.60860   0.83134   0.17601   0.00000  Uiso   1.00
O33    O     0.59412   0.94181   0.09988   0.00000  Uiso   1.00
C34    C     0.57135   0.85489   0.06476   0.00000  Uiso   1.00
O35    O     0.50550   0.89923   0.13873   0.00000  Uiso   1.00
O36    O     0.53890   0.94591   0.16212   0.00000  Uiso   1.00
C37    C     0.71329   0.82597   0.08483   0.00000  Uiso   1.00
C38    C     0.61967   0.93728   0.07643   0.00000  Uiso   1.00
C39    C     0.65382   0.90806   0.18030   0.00000  Uiso   1.00
Y40    Y     0.84950   0.10039   0.66702   0.00000  Uiso   1.00
Y41    Y     0.89140   0.12488   0.59759   0.00000  Uiso   1.00
O42    O     0.79893   0.12098   0.62866   0.00000  Uiso   1.00
O43    O     0.84450   0.08436   0.60373   0.00000  Uiso   1.00
C44    C     0.92173   0.16327   0.54740   0.00000  Uiso   1.00
O45    O     0.89393   0.06391   0.57596   0.00000  Uiso   1.00
O46    O     0.82280   0.09540   0.72117   0.00000  Uiso   1.00
O47    O     0.81993   0.04905   0.68035   0.00000  Uiso   1.00
O48    O     0.83198   0.15451   0.59335   0.00000  Uiso   1.00
O49    O     0.89811   0.13896   0.66082   0.00000  Uiso   1.00
O50    O     0.85089   0.16204   0.68964   0.00000  Uiso   1.00
O51    O     0.90836   0.07035   0.67182   0.00000  Uiso   1.00
C52    C     0.79980   0.14421   0.60411   0.00000  Uiso   1.00
O53    O     0.94186   0.09920   0.63242   0.00000  Uiso   1.00
C54    C     0.86465   0.05447   0.58846   0.00000  Uiso   1.00
O55    O     0.90251   0.13367   0.53829   0.00000  Uiso   1.00
O56    O     0.92657   0.17233   0.58266   0.00000  Uiso   1.00
C57    C     0.81034   0.06276   0.71178   0.00000  Uiso   1.00
C58    C     0.94002   0.07635   0.65737   0.00000  Uiso   1.00
C59    C     0.88065   0.16982   0.67688   0.00000  Uiso   1.00
Y60    Y     0.37765   0.42025   0.36000   0.00000  Uiso   1.00
Y61    Y     0.37001   0.34901   0.40505   0.00000  Uiso   1.00
O62    O     0.43386   0.42015   0.40017   0.00000  Uiso   1.00
O63    O     0.38768   0.35834   0.34808   0.00000  Uiso   1.00
C64    C     0.35029   0.29741   0.44841   0.00000  Uiso   1.00
O65    O     0.42793   0.32911   0.38522   0.00000  Uiso   1.00
O66    O     0.38023   0.48023   0.34844   0.00000  Uiso   1.00
O67    O     0.39542   0.43933   0.30643   0.00000  Uiso   1.00
O68    O     0.41673   0.38310   0.44250   0.00000  Uiso   1.00
O69    O     0.35854   0.41051   0.41643   0.00000  Uiso   1.00
O70    O     0.31841   0.43825   0.37822   0.00000  Uiso   1.00
O71    O     0.33099   0.38687   0.32246   0.00000  Uiso   1.00
C72    C     0.43998   0.40644   0.43207   0.00000  Uiso   1.00
O73    O     0.31442   0.34823   0.36341   0.00000  Uiso   1.00
C74    C     0.42422   0.34258   0.35531   0.00000  Uiso   1.00
O75    O     0.36684   0.28980   0.41891   0.00000  Uiso   1.00
O76    O     0.34338   0.33157   0.45518   0.00000  Uiso   1.00
C77    C     0.38958   0.47340   0.31537   0.00000  Uiso   1.00
C78    C     0.30766   0.36335   0.33233   0.00000  Uiso   1.00
C79    C     0.32138   0.42429   0.40778   0.00000  Uiso   1.00
C80    C     0.27303   0.74683   0.95084   0.00000  Uiso   1.00
C81    C     0.32618   0.78811   0.97922   0.00000  Uiso   1.00
H82    H     0.48091   0.72567   1.00564   0.00000  Uiso   1.00
C83    C     0.34087   0.73056   0.94275   0.00000  Uiso   1.00
C84    C     0.30080   0.72251   0.93558   0.00000  Uiso   1.00
N85    N     0.53777   0.82184   0.00797   0.00000  Uiso   1.00
N86    N     0.21777   0.70180   0.94135   0.00000  Uiso   1.00
O87    O     0.53422   0.77178   0.03942   0.00000  Uiso   1.00
O88    O     0.20673   0.76335   0.94611   0.00000  Uiso   1.00
H89    H     0.59554   0.80909   0.03188   0.00000  Uiso   1.00
H90    H     0.59040   0.85160   0.00991   0.00000  Uiso   1.00
H91    H     0.41181   0.71326   0.98402   0.00000  Uiso   1.00
H92    H     0.46095   0.84225  -0.00578   0.00000  Uiso   1.00
H93    H     0.39248   0.82962  -0.02885   0.00000  Uiso   1.00
H94    H     0.52498   0.83794  -0.01283   0.00000  Uiso   1.00
H95    H     0.26554   0.79963   0.98388   0.00000  Uiso   1.00
H96    H     0.15886   0.71581   0.95167   0.00000  Uiso   1.00
H97    H     0.17506   0.67011   0.96109   0.00000  Uiso   1.00
H98    H     0.33535   0.81330   0.99685   0.00000  Uiso   1.00
H99    H     0.29174   0.69735   0.91789   0.00000  Uiso   1.00
H100   H     0.36156   0.71126   0.93068   0.00000  Uiso   1.00
H101   H     0.23801   0.67995   0.94086   0.00000  Uiso   1.00
C102   C     0.46189   0.74852   0.99796   0.00000  Uiso   1.00
C103   C     0.51785   0.79231   0.01741   0.00000  Uiso   1.00
C104   C     0.57610   0.83351   0.02749   0.00000  Uiso   1.00
C105   C     0.39664   0.77039   0.97569   0.00000  Uiso   1.00
C106   C     0.47658   0.78481   0.00132   0.00000  Uiso   1.00
C107   C     0.42242   0.74137   0.98520   0.00000  Uiso   1.00
C108   C     0.45098   0.81380  -0.00882   0.00000  Uiso   1.00
C109   C     0.41149   0.80664  -0.02158   0.00000  Uiso   1.00
C110   C     0.28616   0.78014   0.97196   0.00000  Uiso   1.00
C111   C     0.23053   0.73791   0.94559   0.00000  Uiso   1.00
C112   C     0.17668   0.69171   0.94143   0.00000  Uiso   1.00
C113   C     0.35405   0.76313   0.96527   0.00000  Uiso   1.00
C114   C     0.45517   0.05453   0.19481   0.00000  Uiso   1.00
C115   C     0.42427   0.11258   0.21642   0.00000  Uiso   1.00
H116   H     0.51183   0.21004   0.33539   0.00000  Uiso   1.00
C117   C     0.49428   0.10417   0.23151   0.00000  Uiso   1.00
C118   C     0.49158   0.06851   0.21212   0.00000  Uiso   1.00
N119   N     0.45409   0.30375   0.30651   0.00000  Uiso   1.00
N120   N     0.47622   0.98669   0.18733   0.00000  Uiso   1.00
O121   O     0.48466   0.27411   0.35380   0.00000  Uiso   1.00
O122   O     0.42624   0.01059   0.14785   0.00000  Uiso   1.00
H123   H     0.48428   0.34584   0.34456   0.00000  Uiso   1.00
H124   H     0.44856   0.36201   0.30904   0.00000  Uiso   1.00
H125   H     0.50792   0.14891   0.29987   0.00000  Uiso   1.00
H126   H     0.41980   0.24907   0.25526   0.00000  Uiso   1.00
H127   H     0.41835   0.18922   0.21852   0.00000  Uiso   1.00
H128   H     0.44212   0.30291   0.27824   0.00000  Uiso   1.00
H129   H     0.39322   0.06713   0.18353   0.00000  Uiso   1.00
H130   H     0.44503   0.94555   0.14849   0.00000  Uiso   1.00
H131   H     0.46172   0.93172   0.19439   0.00000  Uiso   1.00
H132   H     0.39757   0.12863   0.21838   0.00000  Uiso   1.00
H133   H     0.51812   0.05219   0.21018   0.00000  Uiso   1.00
H134   H     0.52287   0.11430   0.24408   0.00000  Uiso   1.00
H135   H     0.49679   0.99173   0.21127   0.00000  Uiso   1.00
C136   C     0.49116   0.20590   0.30997   0.00000  Uiso   1.00
C137   C     0.46889   0.27207   0.32120   0.00000  Uiso   1.00
C138   C     0.45480   0.34020   0.32862   0.00000  Uiso   1.00
C139   C     0.46306   0.16406   0.25604   0.00000  Uiso   1.00
C140   C     0.46672   0.23514   0.29817   0.00000  Uiso   1.00
C141   C     0.48927   0.17086   0.28932   0.00000  Uiso   1.00
C142   C     0.44016   0.22813   0.26507   0.00000  Uiso   1.00
C143   C     0.43868   0.19324   0.24416   0.00000  Uiso   1.00
C144   C     0.42169   0.07718   0.19667   0.00000  Uiso   1.00
C145   C     0.45153   0.01660   0.17475   0.00000  Uiso   1.00
C146   C     0.46961   0.94794   0.17178   0.00000  Uiso   1.00
C147   C     0.46057   0.12655   0.23429   0.00000  Uiso   1.00
C148   C     0.56129   0.35182   0.47754   0.00000  Uiso   1.00
C149   C     0.62886   0.33143   0.49308   0.00000  Uiso   1.00
H150   H     0.66615   0.25662   0.62853   0.00000  Uiso   1.00
C151   C     0.57700   0.30678   0.52326   0.00000  Uiso   1.00
C152   C     0.54939   0.32786   0.50257   0.00000  Uiso   1.00
N153   N     0.75561   0.19572   0.58720   0.00000  Uiso   1.00
N154   N     0.49856   0.38805   0.47145   0.00000  Uiso   1.00
O155   O     0.71091   0.19923   0.62820   0.00000  Uiso   1.00
O156   O     0.54196   0.38968   0.42943   0.00000  Uiso   1.00
H157   H     0.73705   0.14141   0.59478   0.00000  Uiso   1.00
H158   H     0.76050   0.14517   0.55356   0.00000  Uiso   1.00
H159   H     0.62097   0.29720   0.59371   0.00000  Uiso   1.00
H160   H     0.72486   0.23000   0.52857   0.00000  Uiso   1.00
H161   H     0.67943   0.26969   0.49405   0.00000  Uiso   1.00
H162   H     0.77143   0.21059   0.57062   0.00000  Uiso   1.00
H163   H     0.61160   0.37036   0.45319   0.00000  Uiso   1.00
H164   H     0.49284   0.43859   0.44545   0.00000  Uiso   1.00
H165   H     0.46469   0.43574   0.48391   0.00000  Uiso   1.00
H166   H     0.65957   0.33356   0.48937   0.00000  Uiso   1.00
H167   H     0.51884   0.32486   0.50620   0.00000  Uiso   1.00
H168   H     0.56690   0.28870   0.54235   0.00000  Uiso   1.00
H169   H     0.48975   0.37647   0.49455   0.00000  Uiso   1.00
C170   C     0.66985   0.25978   0.59939   0.00000  Uiso   1.00
C171   C     0.72283   0.21125   0.60105   0.00000  Uiso   1.00
C172   C     0.76141   0.15549   0.58400   0.00000  Uiso   1.00
C173   C     0.64639   0.28631   0.54105   0.00000  Uiso   1.00
C174   C     0.69957   0.24023   0.58168   0.00000  Uiso   1.00
C175   C     0.64365   0.28265   0.57935   0.00000  Uiso   1.00
C176   C     0.70312   0.24507   0.54370   0.00000  Uiso   1.00
C177   C     0.67682   0.26779   0.52366   0.00000  Uiso   1.00
C178   C     0.60132   0.35261   0.47247   0.00000  Uiso   1.00
C179   C     0.53319   0.37722   0.45771   0.00000  Uiso   1.00
C180   C     0.47500   0.41950   0.45883   0.00000  Uiso   1.00
C181   C     0.61707   0.30862   0.51901   0.00000  Uiso   1.00
C182   C     0.69323   0.98631   0.98051   0.00000  Uiso   1.00
C183   C     0.73503   0.01540   0.94179   0.00000  Uiso   1.00
H184   H     0.73754   0.95000   0.78846   0.00000  Uiso   1.00
C185   C     0.71690   0.95093   0.92595   0.00000  Uiso   1.00
C186   C     0.69550   0.95281   0.95702   0.00000  Uiso   1.00
N187   N     0.80605   0.02896   0.76660   0.00000  Uiso   1.00
N188   N     0.65292   0.96199   0.02651   0.00000  Uiso   1.00
O189   O     0.79770   0.96618   0.75159   0.00000  Uiso   1.00
O190   O     0.65756   1.02291   0.02191   0.00000  Uiso   1.00
H191   H     0.76837   0.02066   0.71484   0.00000  Uiso   1.00
H192   H     0.76140   0.06331   0.74345   0.00000  Uiso   1.00
H193   H     0.71081   0.94609   0.84802   0.00000  Uiso   1.00
H194   H     0.82796   0.02385   0.84595   0.00000  Uiso   1.00
H195   H     0.80250   0.01865   0.90599   0.00000  Uiso   1.00
H196   H     0.81987   0.04813   0.78764   0.00000  Uiso   1.00
H197   H     0.71336   0.04330   0.99059   0.00000  Uiso   1.00
H198   H     0.59439   0.97315   0.03654   0.00000  Uiso   1.00
H199   H     0.63092   0.99365   0.07277   0.00000  Uiso   1.00
H200   H     0.74896   0.04043   0.93602   0.00000  Uiso   1.00
H201   H     0.67972   0.92832   0.96128   0.00000  Uiso   1.00
H202   H     0.71775   0.92494   0.90812   0.00000  Uiso   1.00
H203   H     0.66031   0.93479   0.01727   0.00000  Uiso   1.00
C204   C     0.75218   0.96471   0.81409   0.00000  Uiso   1.00
C205   C     0.79750   0.99259   0.77570   0.00000  Uiso   1.00
C206   C     0.78403   0.04343   0.73376   0.00000  Uiso   1.00
C207   C     0.75439   0.98222   0.88184   0.00000  Uiso   1.00
C208   C     0.78452   0.98747   0.81263   0.00000  Uiso   1.00
C209   C     0.73703   0.96235   0.84826   0.00000  Uiso   1.00
C210   C     0.80253   0.00664   0.84617   0.00000  Uiso   1.00
C211   C     0.78786   0.00373   0.88051   0.00000  Uiso   1.00
C212   C     0.71415   0.01717   0.97296   0.00000  Uiso   1.00
C213   C     0.66705   0.99133   0.01087   0.00000  Uiso   1.00
C214   C     0.62334   0.96844   0.05284   0.00000  Uiso   1.00
C215   C     0.73603   0.98250   0.91741   0.00000  Uiso   1.00
C216   C     0.71930   0.97873   0.29408   0.00000  Uiso   1.00
C217   C     0.73440   1.00809   0.35842   0.00000  Uiso   1.00
H218   H     0.83153   0.92466   0.46210   0.00000  Uiso   1.00
C219   C     0.77798   0.96103   0.33339   0.00000  Uiso   1.00
C220   C     0.75373   0.95740   0.29892   0.00000  Uiso   1.00
N221   N     0.82853   0.00800   0.54635   0.00000  Uiso   1.00
N222   N     0.68358   0.93757   0.24171   0.00000  Uiso   1.00
O223   O     0.86600   0.95838   0.52576   0.00000  Uiso   1.00
O224   O     0.67204   0.99910   0.24832   0.00000  Uiso   1.00
H225   H     0.87533  -0.00372   0.58853   0.00000  Uiso   1.00
H226   H     0.83004   0.01228   0.60554   0.00000  Uiso   1.00
H227   H     0.80031   0.92601   0.39740   0.00000  Uiso   1.00
H228   H     0.81692   0.04336   0.48227   0.00000  Uiso   1.00
H229   H     0.78627   0.04498   0.41724   0.00000  Uiso   1.00
H230   H     0.80268   0.02302   0.54022   0.00000  Uiso   1.00
H231   H     0.68396   0.02145   0.32092   0.00000  Uiso   1.00
H232   H     0.62849   0.95291   0.21239   0.00000  Uiso   1.00
H233   H     0.62967   0.90961   0.23240   0.00000  Uiso   1.00
H234   H     0.72556   0.02708   0.38135   0.00000  Uiso   1.00
H235   H     0.76184   0.93774   0.27621   0.00000  Uiso   1.00
H236   H     0.80428   0.94416   0.33635   0.00000  Uiso   1.00
H237   H     0.70073   0.91531   0.25068   0.00000  Uiso   1.00
C238   C     0.82209   0.95109   0.45243   0.00000  Uiso   1.00
C239   C     0.84193   0.98221   0.51736   0.00000  Uiso   1.00
C240   C     0.85010   0.01558   0.58397   0.00000  Uiso   1.00
C241   C     0.79043   0.98557   0.40215   0.00000  Uiso   1.00
C242   C     0.82582   0.98372   0.47736   0.00000  Uiso   1.00
C243   C     0.80440   0.95196   0.41531   0.00000  Uiso   1.00
C244   C     0.81330   0.01758   0.46395   0.00000  Uiso   1.00
C245   C     0.79584   0.01851   0.42670   0.00000  Uiso   1.00
C246   C     0.71046   1.00479   0.32383   0.00000  Uiso   1.00
C247   C     0.69091   0.97268   0.25946   0.00000  Uiso   1.00
C248   C     0.64685   0.92804   0.21762   0.00000  Uiso   1.00
C249   C     0.76796   0.98558   0.36393   0.00000  Uiso   1.00
C250   C     0.27361   0.57352   0.70525   0.00000  Uiso   1.00
C251   C     0.31327   0.54507   0.65778   0.00000  Uiso   1.00
H252   H     0.25355   0.41586   0.55994   0.00000  Uiso   1.00
C253   C     0.24466   0.52905   0.65409   0.00000  Uiso   1.00
C254   C     0.24107   0.55316   0.68675   0.00000  Uiso   1.00
N255   N     0.29542   0.44296   0.46753   0.00000  Uiso   1.00
N256   N     0.24333   0.59583   0.76385   0.00000  Uiso   1.00
O257   O     0.29033   0.39483   0.50159   0.00000  Uiso   1.00
O258   O     0.29401   0.62561   0.74641   0.00000  Uiso   1.00
H259   H     0.28327   0.39140   0.43316   0.00000  Uiso   1.00
H260   H     0.26078   0.43191   0.41513   0.00000  Uiso   1.00
H261   H     0.24832   0.45625   0.61823   0.00000  Uiso   1.00
H262   H     0.32888   0.49591   0.52342   0.00000  Uiso   1.00
H263   H     0.32211   0.53695   0.58072   0.00000  Uiso   1.00
H264   H     0.29761   0.47165   0.46726   0.00000  Uiso   1.00
H265   H     0.33537   0.58431   0.70391   0.00000  Uiso   1.00
H266   H     0.24896   0.64838   0.79634   0.00000  Uiso   1.00
H267   H     0.27136   0.61008   0.81890   0.00000  Uiso   1.00
H268   H     0.34165   0.54202   0.64741   0.00000  Uiso   1.00
H269   H     0.21256   0.55645   0.69674   0.00000  Uiso   1.00
H270   H     0.21891   0.51429   0.64007   0.00000  Uiso   1.00
H271   H     0.22505   0.57264   0.75948   0.00000  Uiso   1.00
C272   C     0.26897   0.44209   0.56437   0.00000  Uiso   1.00
C273   C     0.29290   0.42834   0.50110   0.00000  Uiso   1.00
C274   C     0.28799   0.42122   0.43056   0.00000  Uiso   1.00
C275   C     0.28456   0.49992   0.60401   0.00000  Uiso   1.00
C276   C     0.29123   0.45282   0.53683   0.00000  Uiso   1.00
C277   C     0.26557   0.46540   0.59752   0.00000  Uiso   1.00
C278   C     0.31072   0.48710   0.54355   0.00000  Uiso   1.00
C279   C     0.30731   0.51043   0.57670   0.00000  Uiso   1.00
C280   C     0.30969   0.56916   0.69029   0.00000  Uiso   1.00
C281   C     0.27069   0.59998   0.73948   0.00000  Uiso   1.00
C282   C     0.24519   0.61868   0.80029   0.00000  Uiso   1.00
C283   C     0.28077   0.52487   0.63914   0.00000  Uiso   1.00
C284   C     0.26088   0.39359   0.21015   0.00000  Uiso   1.00
C285   C     0.23811   0.40757   0.14607   0.00000  Uiso   1.00
H286   H     0.31168   0.52645   0.08673   0.00000  Uiso   1.00
C287   C     0.27262   0.45440   0.19047   0.00000  Uiso   1.00
C288   C     0.27603   0.42974   0.21833   0.00000  Uiso   1.00
N289   N     0.23564   0.51907   0.99172   0.00000  Uiso   1.00
N290   N     0.26449   0.37791   0.27648   0.00000  Uiso   1.00
O291   O     0.27417   0.56074   0.03236   0.00000  Uiso   1.00
O292   O     0.27031   0.33377   0.22835   0.00000  Uiso   1.00
H293   H     0.27688   0.54565   0.96327   0.00000  Uiso   1.00
H294   H     0.25810   0.50216   0.94038   0.00000  Uiso   1.00
H295   H     0.31160   0.48929   0.13973   0.00000  Uiso   1.00
H296   H     0.19321   0.49156   0.04568   0.00000  Uiso   1.00
H297   H     0.19293   0.45469   0.09902   0.00000  Uiso   1.00
H298   H     0.21481   0.49799   0.98898   0.00000  Uiso   1.00
H299   H     0.23006   0.35511   0.16668   0.00000  Uiso   1.00
H300   H     0.27332   0.32354   0.29484   0.00000  Uiso   1.00
H301   H     0.24560   0.35552   0.32318   0.00000  Uiso   1.00
H302   H     0.22377   0.39816   0.11817   0.00000  Uiso   1.00
H303   H     0.29147   0.43870   0.24591   0.00000  Uiso   1.00
H304   H     0.28485   0.48197   0.19749   0.00000  Uiso   1.00
H305   H     0.25834   0.40570   0.28485   0.00000  Uiso   1.00
C306   C     0.28543   0.51120   0.08936   0.00000  Uiso   1.00
C307   C     0.25466   0.53245   0.02854   0.00000  Uiso   1.00
C308   C     0.25007   0.52824   0.95700   0.00000  Uiso   1.00
C309   C     0.25243   0.46864   0.12340   0.00000  Uiso   1.00
C310   C     0.25275   0.51150   0.06170   0.00000  Uiso   1.00
C311   C     0.28533   0.48998   0.11977   0.00000  Uiso   1.00
C312   C     0.21932   0.49112   0.06585   0.00000  Uiso   1.00
C313   C     0.21913   0.47002   0.09647   0.00000  Uiso   1.00
C314   C     0.24193   0.38282   0.17375   0.00000  Uiso   1.00
C315   C     0.26563   0.36655   0.23879   0.00000  Uiso   1.00
C316   C     0.27098   0.35300   0.30650   0.00000  Uiso   1.00
C317   C     0.25382   0.44353   0.15392   0.00000  Uiso   1.00
C318   C     0.04050   0.19907   0.49748   0.00000  Uiso   1.00
C319   C     0.10437   0.19558   0.47392   0.00000  Uiso   1.00
H320   H     0.23780   0.26937   0.56013   0.00000  Uiso   1.00
C321   C     0.09187   0.24339   0.52359   0.00000  Uiso   1.00
C322   C     0.05368   0.23004   0.52265   0.00000  Uiso   1.00
N323   N     0.29805   0.26473   0.47102   0.00000  Uiso   1.00
N324   N     0.97712   0.19162   0.52376   0.00000  Uiso   1.00
O325   O     0.29200   0.29768   0.52689   0.00000  Uiso   1.00
O326   O     0.98493   0.17006   0.46389   0.00000  Uiso   1.00
H327   H     0.35401   0.27736   0.50272   0.00000  Uiso   1.00
H328   H     0.35384   0.24189   0.46397   0.00000  Uiso   1.00
H329   H     0.17096   0.24704   0.56010   0.00000  Uiso   1.00
H330   H     0.22052   0.26253   0.43798   0.00000  Uiso   1.00
H331   H     0.15403   0.23975   0.43810   0.00000  Uiso   1.00
H332   H     0.28471   0.24810   0.44752   0.00000  Uiso   1.00
H333   H     0.05710   0.15830   0.45334   0.00000  Uiso   1.00
H334   H     0.92349   0.17394   0.49012   0.00000  Uiso   1.00
H335   H     0.92022   0.21432   0.52295   0.00000  Uiso   1.00
H336   H     0.12361   0.18178   0.45493   0.00000  Uiso   1.00
H337   H     0.03423   0.24490   0.54071   0.00000  Uiso   1.00
H338   H     0.10106   0.26763   0.54278   0.00000  Uiso   1.00
H339   H     0.99020   0.20254   0.55040   0.00000  Uiso   1.00
C340   C     0.21971   0.26325   0.53331   0.00000  Uiso   1.00
C341   C     0.27654   0.27773   0.49972   0.00000  Uiso   1.00
C342   C     0.34064   0.26905   0.47325   0.00000  Uiso   1.00
C343   C     0.15753   0.24125   0.49909   0.00000  Uiso   1.00
C344   C     0.23493   0.26676   0.49907   0.00000  Uiso   1.00
C345   C     0.18147   0.25054   0.53333   0.00000  Uiso   1.00
C346   C     0.21044   0.25870   0.46483   0.00000  Uiso   1.00
C347   C     0.17224   0.24586   0.46487   0.00000  Uiso   1.00
C348   C     0.06638   0.18204   0.47319   0.00000  Uiso   1.00
C349   C     0.99930   0.18590   0.49409   0.00000  Uiso   1.00
C350   C     0.93443   0.18665   0.51901   0.00000  Uiso   1.00
C351   C     0.11745   0.22649   0.49900   0.00000  Uiso   1.00
C352   C    -0.00115   0.77630   0.73480   0.00000  Uiso   1.00
C353   C     0.95422   0.82838   0.72745   0.00000  Uiso   1.00
H354   H     0.00800   0.97766   0.77691   0.00000  Uiso   1.00
C355   C     0.02293   0.83976   0.74178   0.00000  Uiso   1.00
C356   C     0.03008   0.80162   0.74192   0.00000  Uiso   1.00
N357   N     0.96938   0.01996   0.68005   0.00000  Uiso   1.00
N358   N     0.03734   0.72154   0.75472   0.00000  Uiso   1.00
O359   O     0.97748   0.03291   0.74335   0.00000  Uiso   1.00
O360   O    -0.01493   0.71511   0.71028   0.00000  Uiso   1.00
H361   H     0.99118   0.07487   0.69722   0.00000  Uiso   1.00
H362   H     0.99793   0.05616   0.65011   0.00000  Uiso   1.00
H363   H     0.01573   0.91138   0.78409   0.00000  Uiso   1.00
H364   H     0.93474   0.95105   0.67075   0.00000  Uiso   1.00
H365   H     0.94261   0.88527   0.67814   0.00000  Uiso   1.00
H366   H     0.96467   1.00009   0.65669   0.00000  Uiso   1.00
H367   H     0.93569   0.77153   0.72131   0.00000  Uiso   1.00
H368   H     0.07081   0.68485   0.72172   0.00000  Uiso   1.00
H369   H     0.02812   0.66437   0.73607   0.00000  Uiso   1.00
H370   H     0.92449   0.83873   0.72200   0.00000  Uiso   1.00
H371   H     0.06017   0.79199   0.74610   0.00000  Uiso   1.00
H372   H     0.04780   0.85840   0.74653   0.00000  Uiso   1.00
H373   H     0.05366   0.73920   0.77561   0.00000  Uiso   1.00
C374   C     0.99329   0.95775   0.75532   0.00000  Uiso   1.00
C375   C     0.97249   0.00946   0.71613   0.00000  Uiso   1.00
C376   C     0.97713   0.05769   0.67181   0.00000  Uiso   1.00
C377   C     0.97954   0.89330   0.73174   0.00000  Uiso   1.00
C378   C     0.97192   0.96968   0.72267   0.00000  Uiso   1.00
C379   C    -0.00235   0.91990   0.75950   0.00000  Uiso   1.00
C380   C     0.95254   0.94303   0.69567   0.00000  Uiso   1.00
C381   C     0.95644   0.90527   0.70016   0.00000  Uiso   1.00
C382   C     0.96055   0.79014   0.72732   0.00000  Uiso   1.00
C383   C     0.00640   0.73582   0.73262   0.00000  Uiso   1.00
C384   C     0.05267   0.68418   0.74534   0.00000  Uiso   1.00
C385   C     0.98611   0.85309   0.73448   0.00000  Uiso   1.00
C386   C     0.91957   0.28343   0.75425   0.00000  Uiso   1.00
C387   C     0.96345   0.32783   0.79392   0.00000  Uiso   1.00
H388   H     1.01447   0.44845   0.71985   0.00000  Uiso   1.00
C389   C     0.92311   0.34733   0.73932   0.00000  Uiso   1.00
C390   C     0.90689   0.31183   0.73153   0.00000  Uiso   1.00
N391   N     0.05563   0.51212   0.81722   0.00000  Uiso   1.00
N392   N     0.88512   0.23350   0.70936   0.00000  Uiso   1.00
O393   O     0.04361   0.50649   0.75394   0.00000  Uiso   1.00
O394   O     0.92733   0.21952   0.75835   0.00000  Uiso   1.00
H395   H     0.06416   0.56270   0.79274   0.00000  Uiso   1.00
H396   H     0.04249   0.56725   0.83607   0.00000  Uiso   1.00
H397   H     0.97681   0.39175   0.71380   0.00000  Uiso   1.00
H398   H     0.01607   0.45580   0.84171   0.00000  Uiso   1.00
H399   H    -0.02141   0.39900   0.83510   0.00000  Uiso   1.00
H400   H     0.05668   0.49989   0.84242   0.00000  Uiso   1.00
H401   H     0.95742   0.27144   0.80474   0.00000  Uiso   1.00
H402   H     0.93117   0.20391   0.68461   0.00000  Uiso   1.00
H403   H     0.89238   0.21872   0.65182   0.00000  Uiso   1.00
H404   H    -0.01372   0.33302   0.81745   0.00000  Uiso   1.00
H405   H     0.88603   0.30654   0.70650   0.00000  Uiso   1.00
H406   H     0.91344   0.36823   0.72069   0.00000  Uiso   1.00
H407   H     0.86137   0.25047   0.70130   0.00000  Uiso   1.00
C408   C     0.00722   0.43806   0.74545   0.00000  Uiso   1.00
C409   C     0.04057   0.49311   0.78340   0.00000  Uiso   1.00
C410   C     0.06504   0.55179   0.82074   0.00000  Uiso   1.00
C411   C     0.97464   0.39086   0.77398   0.00000  Uiso   1.00
C412   C     0.01937   0.45703   0.78126   0.00000  Uiso   1.00
C413   C     0.98517   0.40560   0.74187   0.00000  Uiso   1.00
C414   C     0.00860   0.44221   0.81351   0.00000  Uiso   1.00
C415   C    -0.01330   0.40946   0.80984   0.00000  Uiso   1.00
C416   C     0.94695   0.29240   0.78642   0.00000  Uiso   1.00
C417   C     0.90995   0.24372   0.74160   0.00000  Uiso   1.00
C418   C     0.89873   0.20739   0.67956   0.00000  Uiso   1.00
C419   C     0.95268   0.35532   0.76970   0.00000  Uiso   1.00
C420   C     0.98607   0.70586   0.95034   0.00000  Uiso   1.00
C421   C     0.95003   0.76214   0.96882   0.00000  Uiso   1.00
H422   H     0.77954   0.76213   0.93734   0.00000  Uiso   1.00
C423   C     0.91468   0.70528   0.94690   0.00000  Uiso   1.00
C424   C     0.95014   0.68681   0.94221   0.00000  Uiso   1.00
N425   N     0.76368   0.81877   0.04179   0.00000  Uiso   1.00
N426   N     0.02669   0.65177   0.92841   0.00000  Uiso   1.00
O427   O     0.73579   0.78548   0.98758   0.00000  Uiso   1.00
O428   O     0.05371   0.69965   0.96708   0.00000  Uiso   1.00
H429   H     0.73532   0.77419   0.06131   0.00000  Uiso   1.00
H430   H     0.76917   0.80003   0.09591   0.00000  Uiso   1.00
H431   H     0.84215   0.73886   0.91805   0.00000  Uiso   1.00
H432   H     0.83987   0.81045   0.04380   0.00000  Uiso   1.00
H433   H     0.90210   0.78777   0.02410   0.00000  Uiso   1.00
H434   H     0.78052   0.84278   0.04905   0.00000  Uiso   1.00
H435   H     0.01258   0.75925  -0.02932   0.00000  Uiso   1.00
H436   H     0.04518   0.59713   0.93689   0.00000  Uiso   1.00
H437   H     0.07211   0.63232   0.96737   0.00000  Uiso   1.00
H438   H     0.95064   0.79113  -0.02003   0.00000  Uiso   1.00
H439   H     0.94915   0.65725   0.93394   0.00000  Uiso   1.00
H440   H     0.88769   0.68951   0.94168   0.00000  Uiso   1.00
H441   H     0.00361   0.64215   0.90824   0.00000  Uiso   1.00
C442   C     0.80613   0.76818   0.95644   0.00000  Uiso   1.00
C443   C     0.76596   0.79762   1.00591   0.00000  Uiso   1.00
C444   C     0.74629   0.80258   0.07159   0.00000  Uiso   1.00
C445   C     0.87696   0.76116   0.96980   0.00000  Uiso   1.00
C446   C     0.80448   0.78797   0.99226   0.00000  Uiso   1.00
C447   C     0.84195   0.75481   0.94539   0.00000  Uiso   1.00
C448   C     0.83980   0.79564   0.01591   0.00000  Uiso   1.00
C449   C     0.87561   0.78263   0.00466   0.00000  Uiso   1.00
C450   C     0.98548   0.74384   0.96355   0.00000  Uiso   1.00
C451   C     0.02422   0.68584   0.94887   0.00000  Uiso   1.00
C452   C     0.05803   0.62520   0.93795   0.00000  Uiso   1.00
C453   C     0.91426   0.74302   0.96063   0.00000  Uiso   1.00
C454   C     0.46655   0.55630   0.25298   0.00000  Uiso   1.00
C455   C     0.48132   0.60203   0.21149   0.00000  Uiso   1.00
H456   H     0.52842   0.74713   0.28501   0.00000  Uiso   1.00
C457   C     0.50616   0.61032   0.27800   0.00000  Uiso   1.00
C458   C     0.48835   0.57716   0.28345   0.00000  Uiso   1.00
N459   N     0.58801   0.77618   0.20299   0.00000  Uiso   1.00
N460   N     0.42459   0.52203   0.28970   0.00000  Uiso   1.00
O461   O     0.54703   0.79665   0.24516   0.00000  Uiso   1.00
O462   O     0.43974   0.49794   0.23274   0.00000  Uiso   1.00
H463   H     0.60574   0.82782   0.23478   0.00000  Uiso   1.00
H464   H     0.64374   0.80095   0.21576   0.00000  Uiso   1.00
H465   H     0.50385   0.68624   0.29205   0.00000  Uiso   1.00
H466   H     0.55548   0.70800   0.17261   0.00000  Uiso   1.00
H467   H     0.53311   0.64630   0.18068   0.00000  Uiso   1.00
H468   H     0.59751   0.75440   0.18475   0.00000  Uiso   1.00
H469   H     0.44723   0.55320   0.19289   0.00000  Uiso   1.00
H470   H     0.37895   0.48768   0.25879   0.00000  Uiso   1.00
H471   H     0.36394   0.52183   0.29366   0.00000  Uiso   1.00
H472   H     0.47699   0.61152   0.18361   0.00000  Uiso   1.00
H473   H     0.49150   0.56807   0.31151   0.00000  Uiso   1.00
H474   H     0.52287   0.62573   0.30202   0.00000  Uiso   1.00
H475   H     0.43066   0.54196   0.31289   0.00000  Uiso   1.00
C476   C     0.52932   0.72550   0.26181   0.00000  Uiso   1.00
C477   C     0.55939   0.77043   0.22555   0.00000  Uiso   1.00
C478   C     0.61256   0.80945   0.20949   0.00000  Uiso   1.00
C479   C     0.51715   0.66100   0.23729   0.00000  Uiso   1.00
C480   C     0.54433   0.73266   0.22842   0.00000  Uiso   1.00
C481   C     0.51584   0.69029   0.26614   0.00000  Uiso   1.00
C482   C     0.54507   0.70358   0.19915   0.00000  Uiso   1.00
C483   C     0.53172   0.66814   0.20359   0.00000  Uiso   1.00
C484   C     0.46413   0.56861   0.21682   0.00000  Uiso   1.00
C485   C     0.44380   0.52321   0.25827   0.00000  Uiso   1.00
C486   C     0.38774   0.50168   0.28767   0.00000  Uiso   1.00
C487   C     0.50196   0.62372   0.24215   0.00000  Uiso   1.00
loop_
_geom_bond_atom_site_label_1
_geom_bond_atom_site_label_2
_geom_bond_distance
_geom_bond_site_symmetry_2
_ccdc_geom_bond_type
Y0     O2      2.263   .     S
Y0     O3      2.256   .     S
Y0     O6      2.263   .     S
Y0     O7      2.245   .     S
Y0     O9      2.254   .     S
Y0     O10     2.275   .     S
Y0     O11     2.272   .     S
Y1     O3      2.253   .     S
Y1     O5      2.278   .     S
Y1     O8      2.262   .     S
Y1     O9      2.271   .     S
Y1     O13     2.247   .     S
Y1     O15     2.251   .     S
Y1     O16     2.258   .     S
O2     C12     1.286   .     A
O3     C14     1.375   .     S
C4     O15     1.262   .     A
C4     O16     1.263   .     A
C4     C308    1.492   .     S
O5     C14     1.213   .     D
O6     C17     1.264   .     A
O7     C17     1.260   .     A
O8     C12     1.284   .     A
O9     C19     1.376   .     S
O10    C19     1.216   .     D
O11    C18     1.286   .     A
C12    C282    1.500   .     S
O13    C18     1.283   .     A
C14    C410    1.500   .     S
C17    C384    1.495   .     S
C18    C452    1.495   .     S
C19    C112    1.495   .     S
Y20    O22     2.257   .     S
Y20    O23     2.261   .     S
Y20    O26     2.265   .     S
Y20    O27     2.253   .     S
Y20    O29     2.243   .     S
Y20    O30     2.282   .     S
Y20    O31     2.281   .     S
Y21    O23     2.251   .     S
Y21    O25     2.277   .     S
Y21    O28     2.266   .     S
Y21    O29     2.265   .     S
Y21    O33     2.240   .     S
Y21    O35     2.257   .     S
Y21    O36     2.262   .     S
O22    C32     1.284   .     A
O23    C34     1.373   .     S
C24    O35     1.261   .     A
C24    O36     1.261   .     A
C24    C146    1.496   .     S
O25    C34     1.213   .     D
O26    C37     1.262   .     A
O27    C37     1.260   .     A
O28    C32     1.284   .     A
O29    C39     1.372   .     S
O30    C39     1.216   .     D
O31    C38     1.288   .     A
C32    C478    1.496   .     S
O33    C38     1.281   .     A
C34    C104    1.495   .     S
C37    C444    1.495   .     S
C38    C214    1.494   .     S
C39    C248    1.494   .     S
Y40    O42     2.247   .     S
Y40    O43     2.265   .     S
Y40    O46     2.264   .     S
Y40    O47     2.254   .     S
Y40    O49     2.240   .     S
Y40    O50     2.294   .     S
Y40    O51     2.275   .     S
Y41    O43     2.242   .     S
Y41    O45     2.266   .     S
Y41    O48     2.284   .     S
Y41    O49     2.251   .     S
Y41    O53     2.255   .     S
Y41    O55     2.255   .     S
Y41    O56     2.262   .     S
O42    C52     1.281   .     A
O43    C54     1.375   .     S
C44    O55     1.261   .     A
C44    O56     1.262   .     A
C44    C350    1.496   .     S
O45    C54     1.216   .     D
O46    C57     1.262   .     A
O47    C57     1.259   .     A
O48    C52     1.285   .     A
O49    C59     1.365   .     S
O50    C59     1.216   .     D
O51    C58     1.289   .     A
C52    C172    1.495   .     S
O53    C58     1.287   .     A
C54    C240    1.489   .     S
C57    C206    1.493   .     S
C58    C376    1.494   .     S
C59    C418    1.495   .     S
Y60    O62     2.264   .     S
Y60    O63     2.267   .     S
Y60    O66     2.259   .     S
Y60    O67     2.257   .     S
Y60    O69     2.259   .     S
Y60    O70     2.272   .     S
Y60    O71     2.245   .     S
Y61    O63     2.254   .     S
Y61    O65     2.270   .     S
Y61    O68     2.257   .     S
Y61    O69     2.259   .     S
Y61    O73     2.274   .     S
Y61    O75     2.259   .     S
Y61    O76     2.258   .     S
O62    C72     1.285   .     A
O63    C74     1.376   .     S
C64    O75     1.261   .     A
C64    O76     1.260   .     A
C64    C342    1.493   .     S
O65    C74     1.214   .     D
O66    C77     1.261   .     A
O67    C77     1.261   .     A
O68    C72     1.285   .     A
O69    C79     1.374   .     S
O70    C79     1.212   .     D
O71    C78     1.283   .     A
C72    C180    1.495   .     S
O73    C78     1.285   .     A
C74    C138    1.497   .     S
C77    C486    1.494   .     S
C78    C316    1.498   .     S
C79    C274    1.495   .     S
C80    C84     1.406   .     A
C80    C110    1.406   .     A
C80    C111    1.484   .     S
C81    H98     1.082   .     S
C81    C110    1.396   .     A
C81    C113    1.404   .     A
H82    C102    1.083   .     S
C83    C84     1.398   .     A
C83    H100    1.083   .     S
C83    C113    1.406   .     A
C84    H99     1.081   .     S
N85    H94     1.044   .     S
N85    C103    1.371   .     S
N85    C104    1.460   .     S
N86    H101    1.044   .     S
N86    C111    1.374   .     S
N86    C112    1.463   .     S
O87    C103    1.221   .     D
O88    C111    1.221   .     D
H89    C104    1.112   .     S
H90    C104    1.112   .     S
H91    C107    1.082   .     S
H92    C108    1.082   .     S
H93    C109    1.083   .     S
H95    C110    1.083   .     S
H96    C112    1.113   .     S
H97    C112    1.112   .     S
C102   C107    1.396   .     A
C102   C106    1.404   1_556 A
C103   C106    1.482   .     S
C105   C107    1.405   .     A
C105   C113    1.485   .     S
C105   C109    1.406   1_556 A
C106   C108    1.406   .     A
C106   C102    1.404   1_554 A
C108   C109    1.397   .     A
C109   C105    1.406   1_554 A
C114   C118    1.404   .     A
C114   C144    1.404   .     A
C114   C145    1.482   .     S
C115   H132    1.082   .     S
C115   C144    1.397   .     A
C115   C147    1.407   .     A
H116   C136    1.083   .     S
C117   C118    1.400   .     A
C117   H134    1.082   .     S
C117   C147    1.408   .     A
C118   H133    1.082   .     S
N119   H128    1.043   .     S
N119   C137    1.376   .     S
N119   C138    1.465   .     S
N120   H135    1.045   .     S
N120   C146    1.466   .     S
N120   C145    1.440   1_565 S
O121   C137    1.221   .     D
O122   C145    1.220   .     D
H123   C138    1.111   .     S
H124   C138    1.111   .     S
H125   C141    1.082   .     S
H126   C142    1.080   .     S
H127   C143    1.082   .     S
H129   C144    1.083   .     S
H130   C146    1.110   .     S
H131   C146    1.109   .     S
C136   C140    1.408   .     A
C136   C141    1.399   .     A
C137   C140    1.494   .     S
C139   C141    1.406   .     A
C139   C143    1.406   .     A
C139   C147    1.492   .     S
C140   C142    1.409   .     A
C142   C143    1.398   .     A
C145   N120    1.440   1_545 S
C148   C152    1.409   .     A
C148   C178    1.408   .     A
C148   C179    1.491   .     S
C149   H166    1.083   .     S
C149   C178    1.397   .     A
C149   C181    1.403   .     A
H150   C170    1.083   .     S
C151   C152    1.398   .     A
C151   H168    1.083   .     S
C151   C181    1.405   .     A
C152   H167    1.080   .     S
N153   H162    1.044   .     S
N153   C171    1.371   .     S
N153   C172    1.462   .     S
N154   H169    1.042   .     S
N154   C179    1.375   .     S
N154   C180    1.464   .     S
O155   C171    1.221   .     D
O156   C179    1.221   .     D
H157   C172    1.113   .     S
H158   C172    1.111   .     S
H159   C175    1.083   .     S
H160   C176    1.081   .     S
H161   C177    1.083   .     S
H163   C178    1.083   .     S
H164   C180    1.112   .     S
H165   C180    1.111   .     S
C170   C174    1.407   .     A
C170   C175    1.398   .     A
C171   C174    1.487   .     S
C173   C175    1.405   .     A
C173   C177    1.404   .     A
C173   C181    1.484   .     S
C174   C176    1.408   .     A
C176   C177    1.396   .     A
C182   C186    1.409   .     A
C182   C212    1.405   1_565 A
C182   C213    1.486   1_556 S
C183   H200    1.082   .     S
C183   C212    1.391   .     A
C183   C215    1.404   1_545 A
H184   C204    1.083   .     S
C185   C186    1.399   .     A
C185   H202    1.083   .     S
C185   C215    1.407   .     A
C186   H201    1.080   .     S
N187   H196    1.044   .     S
N187   C206    1.459   .     S
N187   C205    1.433   1_545 S
N188   H203    1.043   .     S
N188   C213    1.373   .     S
N188   C214    1.465   .     S
O189   C205    1.220   .     D
O190   C213    1.222   .     D
H191   C206    1.113   .     S
H192   C206    1.111   .     S
H193   C209    1.083   .     S
H194   C210    1.082   .     S
H195   C211    1.083   .     S
H197   C212    1.083   .     S
H198   C214    1.110   .     S
H199   C214    1.113   .     S
C204   C208    1.403   .     A
C204   C209    1.396   .     A
C205   C208    1.474   .     S
C205   N187    1.433   1_565 S
C207   C209    1.406   .     A
C207   C215    1.485   .     S
C207   C211    1.407   1_565 A
C208   C210    1.402   1_565 A
C210   C211    1.397   .     A
C210   C208    1.402   1_545 A
C211   C207    1.407   1_545 A
C212   C182    1.405   1_545 A
C213   C182    1.486   1_554 S
C215   C183    1.404   1_565 A
C216   C220    1.404   .     A
C216   C246    1.404   .     A
C216   C247    1.481   .     S
C217   C246    1.396   .     A
C217   C249    1.406   .     A
C217   H234    1.083   1_565 S
H218   C238    1.083   .     S
C219   C220    1.398   .     A
C219   H236    1.082   .     S
C219   C249    1.407   .     A
C220   H235    1.082   .     S
N221   H230    1.045   .     S
N221   C240    1.458   .     S
N221   C239    1.434   1_545 S
N222   H237    1.045   .     S
N222   C247    1.374   .     S
N222   C248    1.464   .     S
O223   C239    1.220   .     D
O224   C247    1.221   .     D
H225   C240    1.111   .     S
H226   C240    1.110   .     S
H227   C243    1.082   .     S
H228   C244    1.083   .     S
H229   C245    1.083   .     S
H231   C246    1.083   1_545 S
H232   C248    1.110   .     S
H233   C248    1.111   .     S
H234   C217    1.083   1_545 S
C238   C242    1.402   .     A
C238   C243    1.396   .     A
C239   C242    1.477   .     S
C239   N221    1.434   1_565 S
C241   C243    1.407   .     A
C241   C249    1.487   .     S
C241   C245    1.407   1_565 A
C242   C244    1.405   1_565 A
C244   C245    1.398   .     A
C244   C242    1.405   1_545 A
C245   C241    1.407   1_545 A
C246   H231    1.083   1_565 S
C250   C254    1.406   .     A
C250   C280    1.406   .     A
C250   C281    1.486   .     S
C251   H268    1.083   .     S
C251   C280    1.396   .     A
C251   C283    1.404   .     A
H252   C272    1.083   .     S
C253   C254    1.400   .     A
C253   H270    1.083   .     S
C253   C283    1.407   .     A
C254   H269    1.081   .     S
N255   H264    1.044   .     S
N255   C273    1.375   .     S
N255   C274    1.464   .     S
N256   H271    1.044   .     S
N256   C281    1.376   .     S
N256   C282    1.464   .     S
O257   C273    1.221   .     D
O258   C281    1.222   .     D
H259   C274    1.110   .     S
H260   C274    1.111   .     S
H261   C277    1.083   .     S
H262   C278    1.082   .     S
H263   C279    1.083   .     S
H265   C280    1.083   .     S
H266   C282    1.111   .     S
H267   C282    1.113   .     S
C272   C276    1.406   .     A
C272   C277    1.398   .     A
C273   C276    1.484   .     S
C275   C277    1.405   .     A
C275   C279    1.407   .     A
C275   C283    1.487   .     S
C276   C278    1.405   .     A
C278   C279    1.398   .     A
C284   C288    1.406   .     A
C284   C314    1.404   .     A
C284   C315    1.483   .     S
C285   H302    1.082   .     S
C285   C314    1.397   .     A
C285   C317    1.406   .     A
H286   C306    1.083   .     S
C287   C288    1.400   .     A
C287   H304    1.083   .     S
C287   C317    1.407   .     A
C288   H303    1.083   .     S
N289   H298    1.044   .     S
N289   C308    1.462   .     S
N289   C307    1.438   1_556 S
N290   H305    1.045   .     S
N290   C315    1.373   .     S
N290   C316    1.468   .     S
O291   C307    1.220   .     D
O292   C315    1.221   .     D
H293   C308    1.111   .     S
H294   C308    1.111   .     S
H295   C311    1.082   .     S
H296   C312    1.082   .     S
H297   C313    1.083   .     S
H299   C314    1.083   .     S
H300   C316    1.109   .     S
H301   C316    1.111   .     S
C306   C310    1.404   .     A
C306   C311    1.397   .     A
C307   C310    1.482   .     S
C307   N289    1.438   1_554 S
C309   C311    1.405   .     A
C309   C313    1.408   .     A
C309   C317    1.489   .     S
C310   C312    1.405   .     A
C312   C313    1.400   .     A
C318   C322    1.408   .     A
C318   C348    1.406   .     A
C318   C349    1.487   1_455 S
C319   H336    1.083   .     S
C319   C348    1.397   .     A
C319   C351    1.404   .     A
H320   C340    1.083   .     S
C321   C322    1.400   .     A
C321   H338    1.083   .     S
C321   C351    1.405   .     A
C322   H337    1.082   .     S
N323   H332    1.044   .     S
N323   C341    1.374   .     S
N323   C342    1.464   .     S
N324   H339    1.045   .     S
N324   C349    1.375   .     S
N324   C350    1.466   .     S
O325   C341    1.221   .     D
O326   C349    1.221   .     D
H327   C342    1.111   .     S
H328   C342    1.112   .     S
H329   C345    1.083   .     S
H330   C346    1.082   .     S
H331   C347    1.083   .     S
H333   C348    1.083   .     S
H334   C350    1.111   .     S
H335   C350    1.110   .     S
C340   C344    1.406   .     A
C340   C345    1.398   .     A
C341   C344    1.485   .     S
C343   C345    1.404   .     A
C343   C347    1.405   .     A
C343   C351    1.483   .     S
C344   C346    1.407   .     A
C346   C347    1.399   .     A
C349   C318    1.487   1_655 S
C352   C356    1.405   .     A
C352   C383    1.481   .     S
C352   C382    1.404   1_455 A
C353   H370    1.083   .     S
C353   C382    1.398   .     A
C353   C385    1.408   .     A
H354   C374    1.084   1_455 S
C355   C356    1.399   .     A
C355   H372    1.083   .     S
C355   C385    1.350   1_455 D
C356   H371    1.082   .     S
N357   C375    1.375   .     S
N357   C376    1.464   .     S
N357   H366    1.043   1_545 S
N358   H373    1.046   .     S
N358   C383    1.373   .     S
N358   C384    1.464   .     S
O359   C375    1.221   .     D
O360   C383    1.221   .     D
H361   C376    1.110   .     S
H362   C376    1.112   .     S
H363   C379    1.083   .     S
H364   C380    1.082   .     S
H365   C381    1.083   .     S
H366   N357    1.043   1_565 S
H367   C382    1.083   .     S
H368   C384    1.110   .     S
H369   C384    1.113   .     S
C374   C378    1.407   .     A
C374   H354    1.084   1_655 S
C374   C379    1.398   1_655 A
C375   C378    1.485   1_545 S
C377   C381    1.403   .     A
C377   C385    1.482   .     S
C377   C379    1.405   1_655 A
C378   C380    1.407   .     A
C378   C375    1.485   1_565 S
C379   C374    1.398   1_455 A
C379   C377    1.405   1_455 A
C380   C381    1.396   .     A
C382   C352    1.404   1_655 A
C385   C355    1.350   1_655 D
C386   C390    1.408   .     A
C386   C416    1.409   .     A
C386   C417    1.492   .     S
C387   C416    1.399   .     A
C387   C419    1.404   .     A
C387   H404    1.083   1_655 S
H388   C408    1.083   1_655 S
C389   C390    1.398   .     A
C389   H406    1.083   .     S
C389   C419    1.405   .     A
C390   H405    1.080   .     S
N391   H400    1.042   .     S
N391   C409    1.376   .     S
N391   C410    1.468   .     S
N392   H407    1.043   .     S
N392   C417    1.371   .     S
N392   C418    1.464   .     S
O393   C409    1.221   .     D
O394   C417    1.221   .     D
H395   C410    1.112   .     S
H396   C410    1.111   .     S
H397   C413    1.083   .     S
H398   C414    1.079   .     S
H399   C415    1.083   .     S
H401   C416    1.083   .     S
H402   C418    1.113   .     S
H403   C418    1.110   .     S
H404   C387    1.083   1_455 S
C408   C412    1.409   .     A
C408   H388    1.083   1_455 S
C408   C413    1.395   1_455 A
C409   C412    1.497   .     S
C411   C413    1.404   .     A
C411   C419    1.488   .     S
C411   C415    1.405   1_655 A
C412   C414    1.412   .     A
C413   C408    1.395   1_655 A
C414   C415    1.401   .     A
C415   C411    1.405   1_455 A
C420   C424    1.408   .     A
C420   C450    1.408   .     A
C420   C451    1.489   1_655 S
C421   C450    1.399   .     A
C421   C453    1.405   .     A
C421   H438    1.083   1_556 S
H422   C442    1.083   .     S
C423   C424    1.397   .     A
C423   H440    1.083   .     S
C423   C453    1.404   .     A
C424   H439    1.081   .     S
N425   H434    1.045   .     S
N425   C444    1.460   .     S
N425   C443    1.434   1_554 S
N426   H441    1.044   .     S
N426   C451    1.374   .     S
N426   C452    1.465   .     S
O427   C443    1.220   .     D
O428   C451    1.221   .     D
H429   C444    1.112   .     S
H430   C444    1.110   .     S
H431   C447    1.083   .     S
H432   C448    1.082   .     S
H433   C449    1.083   .     S
H435   C450    1.083   1_454 S
H436   C452    1.110   .     S
H437   C452    1.110   .     S
H438   C421    1.083   1_554 S
C442   C446    1.408   .     A
C442   C447    1.399   .     A
C443   C446    1.487   .     S
C443   N425    1.434   1_556 S
C445   C447    1.405   .     A
C445   C453    1.484   .     S
C445   C449    1.404   1_556 A
C446   C448    1.407   1_556 A
C448   C449    1.398   .     A
C448   C446    1.407   1_554 A
C449   C445    1.404   1_554 A
C450   H435    1.083   1_656 S
C451   C420    1.489   1_455 S
C454   C458    1.403   .     A
C454   C484    1.405   .     A
C454   C485    1.482   .     S
C455   H472    1.082   .     S
C455   C484    1.396   .     A
C455   C487    1.405   .     A
H456   C476    1.083   .     S
C457   C458    1.399   .     A
C457   H474    1.082   .     S
C457   C487    1.409   .     A
C458   H473    1.082   .     S
N459   H468    1.043   .     S
N459   C477    1.375   .     S
N459   C478    1.465   .     S
N460   H475    1.045   .     S
N460   C485    1.374   .     S
N460   C486    1.465   .     S
O461   C477    1.222   .     D
O462   C485    1.221   .     D
H463   C478    1.111   .     S
H464   C478    1.112   .     S
H465   C481    1.083   .     S
H466   C482    1.081   .     S
H467   C483    1.083   .     S
H469   C484    1.083   .     S
H470   C486    1.112   .     S
H471   C486    1.111   .     S
C476   C480    1.406   .     A
C476   C481    1.394   .     A
C477   C480    1.488   .     S
C479   C481    1.405   .     A
C479   C483    1.409   .     A
C479   C487    1.490   .     S
C480   C482    1.408   .     A
C482   C483    1.401   .     A
