data_lcy+N155+E161
_audit_creation_date              2025-01-21
_audit_creation_method            'Materials Studio'
_symmetry_space_group_name_H-M    'P1'
_symmetry_Int_Tables_number       1
_symmetry_cell_setting            triclinic
loop_
_symmetry_equiv_pos_as_xyz
  x,y,z
_cell_length_a                    38.1385
_cell_length_b                    38.6428
_cell_length_c                    40.5977
_cell_angle_alpha                 92.0447
_cell_angle_beta                  97.1615
_cell_angle_gamma                 95.5390
loop_
_atom_site_label
_atom_site_type_symbol
_atom_site_fract_x
_atom_site_fract_y
_atom_site_fract_z
_atom_site_U_iso_or_equiv
_atom_site_adp_type
_atom_site_occupancy
C0     C     0.18161   0.58601   0.81785   0.00000  Uiso   1.00
Ho1    Ho    0.14257   0.60463   0.86140   0.00000  Uiso   1.00
C2     C     0.05281   0.64846   0.94812   0.00000  Uiso   1.00
Ho3    Ho    0.09432   0.62470   0.90934   0.00000  Uiso   1.00
O4     O     0.14840   0.57636   0.81608   0.00000  Uiso   1.00
O5     O     0.19446   0.60516   0.84389   0.00000  Uiso   1.00
O6     O     0.12711   0.55092   0.87453   0.00000  Uiso   1.00
O7     O     0.08760   0.58727   0.86711   0.00000  Uiso   1.00
C8     C     0.09525   0.55358   0.87342   0.00000  Uiso   1.00
C9     C     0.15122   0.66763   0.92224   0.00000  Uiso   1.00
O10    O     0.15863   0.57209   0.90588   0.00000  Uiso   1.00
O11    O     0.11878   0.58682   0.94164   0.00000  Uiso   1.00
O12    O     0.08587   0.65950   0.95055   0.00000  Uiso   1.00
O13    O     0.04245   0.62448   0.92564   0.00000  Uiso   1.00
O14    O     0.12438   0.67192   0.93501   0.00000  Uiso   1.00
O15    O     0.14944   0.63456   0.90779   0.00000  Uiso   1.00
O16    O     0.08377   0.66241   0.87065   0.00000  Uiso   1.00
O17    O     0.12503   0.65050   0.83629   0.00000  Uiso   1.00
C18    C     0.10128   0.66910   0.84579   0.00000  Uiso   1.00
C19    C     0.14607   0.57122   0.93490   0.00000  Uiso   1.00
C20    C     0.60463   0.81035   0.18047   0.00000  Uiso   1.00
Ho21   Ho    0.62476   0.85753   0.14069   0.00000  Uiso   1.00
C22    C     0.65881   0.94720   0.03883   0.00000  Uiso   1.00
Ho23   Ho    0.64339   0.90641   0.08512   0.00000  Uiso   1.00
O24    O     0.58479   0.81978   0.15556   0.00000  Uiso   1.00
O25    O     0.63533   0.82765   0.18540   0.00000  Uiso   1.00
O26    O     0.60395   0.82112   0.09744   0.00000  Uiso   1.00
O27    O     0.59704   0.87413   0.09496   0.00000  Uiso   1.00
C28    C     0.59029   0.84173   0.07979   0.00000  Uiso   1.00
C29    C     0.67389   0.92332   0.14746   0.00000  Uiso   1.00
O30    O     0.59564   0.90246   0.15381   0.00000  Uiso   1.00
O31    O     0.61026   0.93914   0.11235   0.00000  Uiso   1.00
O32    O     0.68110   0.94245   0.06414   0.00000  Uiso   1.00
O33    O     0.62808   0.93073   0.03887   0.00000  Uiso   1.00
O34    O     0.66141   0.94377   0.12868   0.00000  Uiso   1.00
O35    O     0.67070   0.89124   0.13178   0.00000  Uiso   1.00
O36    O     0.67044   0.86137   0.07079   0.00000  Uiso   1.00
O37    O     0.65789   0.82514   0.11292   0.00000  Uiso   1.00
C38    C     0.67385   0.83309   0.08698   0.00000  Uiso   1.00
C39    C     0.59371   0.93139   0.13805   0.00000  Uiso   1.00
C40    C     0.80926   0.19500   0.59256   0.00000  Uiso   1.00
Ho41   Ho    0.85235   0.14888   0.61005   0.00000  Uiso   1.00
C42    C     0.93917   0.05040   0.65223   0.00000  Uiso   1.00
Ho43   Ho    0.89701   0.09570   0.63070   0.00000  Uiso   1.00
O44    O     0.80626   0.16418   0.57899   0.00000  Uiso   1.00
O45    O     0.83615   0.20142   0.61494   0.00000  Uiso   1.00
O46    O     0.81214   0.12797   0.56967   0.00000  Uiso   1.00
O47    O     0.85328   0.09595   0.59085   0.00000  Uiso   1.00
C48    C     0.82436   0.09988   0.56673   0.00000  Uiso   1.00
C49    C     0.91711   0.14603   0.67544   0.00000  Uiso   1.00
O50    O     0.89227   0.15901   0.57535   0.00000  Uiso   1.00
O51    O     0.92915   0.11783   0.59435   0.00000  Uiso   1.00
O52    O     0.94183   0.08170   0.66449   0.00000  Uiso   1.00
O53    O     0.91344   0.04330   0.62880   0.00000  Uiso   1.00
O54    O     0.92875   0.11754   0.67747   0.00000  Uiso   1.00
O55    O     0.89966   0.15003   0.64411   0.00000  Uiso   1.00
O56    O     0.85626   0.08427   0.66366   0.00000  Uiso   1.00
O57    O     0.82162   0.12757   0.64857   0.00000  Uiso   1.00
C58    C     0.82951   0.10187   0.66685   0.00000  Uiso   1.00
C59    C     0.92063   0.14249   0.57470   0.00000  Uiso   1.00
C60    C     0.38412   0.29351   0.30922   0.00000  Uiso   1.00
Ho61   Ho    0.36641   0.34304   0.34727   0.00000  Uiso   1.00
C62    C     0.34231   0.44592   0.43680   0.00000  Uiso   1.00
Ho63   Ho    0.35479   0.39780   0.39460   0.00000  Uiso   1.00
O64    O     0.39793   0.30041   0.33932   0.00000  Uiso   1.00
O65    O     0.36054   0.31357   0.29900   0.00000  Uiso   1.00
O66    O     0.41405   0.32147   0.37022   0.00000  Uiso   1.00
O67    O     0.38488   0.35343   0.39969   0.00000  Uiso   1.00
C68    C     0.41624   0.33852   0.39660   0.00000  Uiso   1.00
C69    C     0.32395   0.41423   0.33682   0.00000  Uiso   1.00
O70    O     0.40487   0.38472   0.33336   0.00000  Uiso   1.00
O71    O     0.40074   0.42461   0.37530   0.00000  Uiso   1.00
O72    O     0.32672   0.44248   0.40691   0.00000  Uiso   1.00
O73    O     0.36587   0.42501   0.44329   0.00000  Uiso   1.00
O74    O     0.32864   0.43420   0.36136   0.00000  Uiso   1.00
O75    O     0.32817   0.38049   0.34543   0.00000  Uiso   1.00
O76    O     0.31085   0.35949   0.40323   0.00000  Uiso   1.00
O77    O     0.32476   0.31297   0.37114   0.00000  Uiso   1.00
C78    C     0.30523   0.32725   0.39125   0.00000  Uiso   1.00
C79    C     0.41420   0.41447   0.34929   0.00000  Uiso   1.00
H80    H     0.19502   0.67849   0.97869   0.00000  Uiso   1.00
C81    C     0.56289   0.83182   0.05137   0.00000  Uiso   1.00
C82    C     0.55094   0.85682   0.02971   0.00000  Uiso   1.00
C83    C     0.51920   0.84957   0.00790   0.00000  Uiso   1.00
C84    C     0.49858   0.81724   0.00878   0.00000  Uiso   1.00
C85    C     0.51170   0.79145   0.02946   0.00000  Uiso   1.00
C86    C     0.54414   0.79870   0.04988   0.00000  Uiso   1.00
C87    C     0.50695   0.87662   0.98462   0.00000  Uiso   1.00
C88    C     0.48990   0.75723   0.03196   0.00000  Uiso   1.00
C89    C     0.45511   0.78848   0.96495   0.00000  Uiso   1.00
C90    C     0.41963   0.77648   0.95308   0.00000  Uiso   1.00
C91    C     0.39216   0.79056   0.96764   0.00000  Uiso   1.00
C92    C     0.40045   0.81678  -0.00688   0.00000  Uiso   1.00
C93    C     0.43626   0.82645   0.00547   0.00000  Uiso   1.00
C94    C     0.41100   0.74978   0.92814   0.00000  Uiso   1.00
C95    C     0.37572   0.73596   0.91910   0.00000  Uiso   1.00
C96    C     0.34823   0.74925   0.93410   0.00000  Uiso   1.00
C97    C     0.35636   0.77751   0.95752   0.00000  Uiso   1.00
C98    C     0.32886   0.79198   0.97167   0.00000  Uiso   1.00
C99    C     0.33735   0.81958  -0.00430   0.00000  Uiso   1.00
C100   C     0.37279   0.83154   0.00663   0.00000  Uiso   1.00
C101   C     0.31287   0.73423   0.92719   0.00000  Uiso   1.00
C102   C     0.29361   0.77760   0.96222   0.00000  Uiso   1.00
C103   C     0.25101   0.73022   0.93711   0.00000  Uiso   1.00
C104   C     0.24078   0.74869   0.87692   0.00000  Uiso   1.00
C105   C     0.19640   0.70892   0.90138   0.00000  Uiso   1.00
C106   C     0.26131   0.71018  -0.00357   0.00000  Uiso   1.00
C107   C     0.20471   0.69293   0.95868   0.00000  Uiso   1.00
C108   C     0.23842   0.71166   0.96354   0.00000  Uiso   1.00
C109   C     0.22942   0.72914   0.90591   0.00000  Uiso   1.00
C110   C     0.18398   0.69118   0.92773   0.00000  Uiso   1.00
H111   H     0.26662   0.73642   0.00903   0.00000  Uiso   1.00
N112   N     0.46277   0.81167  -0.00819   0.00000  Uiso   1.00
N113   N     0.28643   0.74817   0.94168   0.00000  Uiso   1.00
H114   H     0.28687   0.70019  -0.00754   0.00000  Uiso   1.00
H115   H     0.56558   0.88241   0.03082   0.00000  Uiso   1.00
H116   H     0.55327   0.77942   0.06682   0.00000  Uiso   1.00
H117   H     0.52666   0.89991   0.98622   0.00000  Uiso   1.00
H118   H     0.50322   0.86545   0.95871   0.00000  Uiso   1.00
H119   H     0.48146   0.88511   0.99069   0.00000  Uiso   1.00
H120   H     0.48677   0.74207   0.00792   0.00000  Uiso   1.00
H121   H     0.50254   0.74119   0.05132   0.00000  Uiso   1.00
H122   H     0.46330   0.76193   0.03851   0.00000  Uiso   1.00
O123   O     0.44461   0.84926   0.03266   0.00000  Uiso   1.00
O124   O     0.48224   0.77524   0.95092   0.00000  Uiso   1.00
H125   H     0.43155   0.73865   0.91635   0.00000  Uiso   1.00
H126   H     0.37842   0.85202   0.02602   0.00000  Uiso   1.00
H127   H     0.37008   0.71462   0.90058   0.00000  Uiso   1.00
H128   H     0.21985   0.76526   0.86749   0.00000  Uiso   1.00
H129   H     0.26579   0.76597   0.88362   0.00000  Uiso   1.00
H130   H     0.18031   0.70709   0.87727   0.00000  Uiso   1.00
H131   H     0.31671   0.83123   0.00693   0.00000  Uiso   1.00
H132   H     0.24822   0.69271   0.01341   0.00000  Uiso   1.00
O133   O     0.26635   0.79224   0.97474   0.00000  Uiso   1.00
O134   O     0.30500   0.70475   0.90668   0.00000  Uiso   1.00
H135   H     0.24460   0.72991   0.85663   0.00000  Uiso   1.00
H136   H     0.56440   0.98108   0.10256   0.00000  Uiso   1.00
C137   C     0.39541   0.26471   0.28944   0.00000  Uiso   1.00
C138   C     0.41191   0.23852   0.30655   0.00000  Uiso   1.00
C139   C     0.42582   0.21202   0.28958   0.00000  Uiso   1.00
C140   C     0.42341   0.21149   0.25463   0.00000  Uiso   1.00
C141   C     0.40658   0.23759   0.23704   0.00000  Uiso   1.00
C142   C     0.39232   0.26390   0.25461   0.00000  Uiso   1.00
C143   C     0.44388   0.18472   0.30894   0.00000  Uiso   1.00
C144   C     0.40472   0.23778   0.19983   0.00000  Uiso   1.00
C145   C     0.41807   0.15342   0.22847   0.00000  Uiso   1.00
C146   C     0.43366   0.12461   0.21690   0.00000  Uiso   1.00
C147   C     0.47034   0.12802   0.21444   0.00000  Uiso   1.00
C148   C     0.49057   0.16039   0.22257   0.00000  Uiso   1.00
C149   C     0.47378   0.18849   0.23385   0.00000  Uiso   1.00
C150   C     0.41376   0.09221   0.20869   0.00000  Uiso   1.00
C151   C     0.43013   0.06355   0.19850   0.00000  Uiso   1.00
C152   C     0.46678   0.06656   0.19641   0.00000  Uiso   1.00
C153   C     0.48696   0.09899   0.20439   0.00000  Uiso   1.00
C154   C     0.52378   0.10225   0.20260   0.00000  Uiso   1.00
C155   C     0.54361   0.13475   0.21035   0.00000  Uiso   1.00
C156   C     0.52716   0.16348   0.22014   0.00000  Uiso   1.00
C157   C     0.48391   0.03808   0.18652   0.00000  Uiso   1.00
C158   C     0.53980   0.07295   0.19302   0.00000  Uiso   1.00
C159   C     0.53648   1.01263   0.17323   0.00000  Uiso   1.00
C160   C     0.54353   0.98916   0.23149   0.00000  Uiso   1.00
C161   C     0.56653   0.96042   0.18356   0.00000  Uiso   1.00
C162   C     0.52862   0.03585   0.11546   0.00000  Uiso   1.00
C163   C     0.56007   0.98286   0.12844   0.00000  Uiso   1.00
C164   C     0.54191   1.00985   0.13954   0.00000  Uiso   1.00
C165   C     0.54859   0.98748   0.19530   0.00000  Uiso   1.00
C166   C     0.57274   0.95820   0.15025   0.00000  Uiso   1.00
H167   H     0.54176   0.06224   0.12317   0.00000  Uiso   1.00
N168   N     0.43839   0.18439   0.23744   0.00000  Uiso   1.00
N169   N     0.51973   0.04166   0.18491   0.00000  Uiso   1.00
H170   H     0.49947   0.03603   0.11482   0.00000  Uiso   1.00
H171   H     0.41443   0.23904   0.33346   0.00000  Uiso   1.00
H172   H     0.38008   0.28439   0.24133   0.00000  Uiso   1.00
H173   H     0.44255   0.18819   0.33601   0.00000  Uiso   1.00
H174   H     0.43088   0.15844   0.30051   0.00000  Uiso   1.00
H175   H     0.47228   0.18632   0.30513   0.00000  Uiso   1.00
H176   H     0.39067   0.21290   0.18845   0.00000  Uiso   1.00
H177   H     0.39035   0.25946   0.18959   0.00000  Uiso   1.00
H178   H     0.43199   0.24078   0.19272   0.00000  Uiso   1.00
O179   O     0.49330   0.21993   0.24283   0.00000  Uiso   1.00
O180   O     0.38264   0.15019   0.23224   0.00000  Uiso   1.00
H181   H     0.38554   0.08884   0.21038   0.00000  Uiso   1.00
H182   H     0.54329   0.18806   0.22618   0.00000  Uiso   1.00
H183   H     0.41401   0.03895   0.19250   0.00000  Uiso   1.00
H184   H     0.56983   0.99241   0.24698   0.00000  Uiso   1.00
H185   H     0.52855   1.01098   0.23822   0.00000  Uiso   1.00
H186   H     0.57639   0.94159   0.20067   0.00000  Uiso   1.00
H187   H     0.57192   0.13803   0.20899   0.00000  Uiso   1.00
H188   H     0.53418   0.02958   0.08986   0.00000  Uiso   1.00
O189   O     0.57570   0.07563   0.19135   0.00000  Uiso   1.00
O190   O     0.46462   0.00639   0.17822   0.00000  Uiso   1.00
H191   H     0.52864   0.96463   0.23764   0.00000  Uiso   1.00
H192   H     0.46813   0.29630   0.39814   0.00000  Uiso   1.00
C193   C     0.78282   0.21975   0.58374   0.00000  Uiso   1.00
C194   C     0.78318   0.25112   0.60235   0.00000  Uiso   1.00
C195   C     0.75565   0.27264   0.59584   0.00000  Uiso   1.00
C196   C     0.72766   0.26279   0.57007   0.00000  Uiso   1.00
C197   C     0.72800   0.23189   0.55052   0.00000  Uiso   1.00
C198   C     0.75551   0.21071   0.55756   0.00000  Uiso   1.00
C199   C     0.75584   0.30558   0.61670   0.00000  Uiso   1.00
C200   C     0.69864   0.22103   0.52265   0.00000  Uiso   1.00
C201   C     0.69955   0.30928   0.54197   0.00000  Uiso   1.00
C202   C     0.66861   0.32440   0.53005   0.00000  Uiso   1.00
C203   C     0.63626   0.31258   0.54130   0.00000  Uiso   1.00
C204   C     0.63575   0.28766   0.56576   0.00000  Uiso   1.00
C205   C     0.66740   0.27349   0.57713   0.00000  Uiso   1.00
C206   C     0.66886   0.34958   0.50592   0.00000  Uiso   1.00
C207   C     0.63710   0.36120   0.49162   0.00000  Uiso   1.00
C208   C     0.60444   0.34795   0.50119   0.00000  Uiso   1.00
C209   C     0.60413   0.32432   0.52681   0.00000  Uiso   1.00
C210   C     0.57157   0.31096   0.53671   0.00000  Uiso   1.00
C211   C     0.57160   0.28765   0.56250   0.00000  Uiso   1.00
C212   C     0.60336   0.27616   0.57691   0.00000  Uiso   1.00
C213   C     0.57190   0.35599   0.48445   0.00000  Uiso   1.00
C214   C     0.53972   0.31960   0.51911   0.00000  Uiso   1.00
C215   C     0.50873   0.34039   0.46910   0.00000  Uiso   1.00
C216   C     0.48848   0.39155   0.50085   0.00000  Uiso   1.00
C217   C     0.45257   0.36297   0.44960   0.00000  Uiso   1.00
C218   C     0.52910   0.28963   0.43758   0.00000  Uiso   1.00
C219   C     0.47229   0.31521   0.41899   0.00000  Uiso   1.00
C220   C     0.50282   0.31564   0.44202   0.00000  Uiso   1.00
C221   C     0.48338   0.36425   0.47287   0.00000  Uiso   1.00
C222   C     0.44709   0.33876   0.42248   0.00000  Uiso   1.00
H223   H     0.53196   0.27340   0.45958   0.00000  Uiso   1.00
N224   N     0.69806   0.28332   0.56401   0.00000  Uiso   1.00
N225   N     0.54048   0.34034   0.49246   0.00000  Uiso   1.00
H226   H     0.55538   0.30335   0.43467   0.00000  Uiso   1.00
H227   H     0.80437   0.25840   0.62247   0.00000  Uiso   1.00
H228   H     0.75545   0.18681   0.54273   0.00000  Uiso   1.00
H229   H     0.77933   0.30933   0.63606   0.00000  Uiso   1.00
H230   H     0.75656   0.32830   0.60072   0.00000  Uiso   1.00
H231   H     0.73154   0.30444   0.62924   0.00000  Uiso   1.00
H232   H     0.69736   0.24157   0.50423   0.00000  Uiso   1.00
H233   H     0.70290   0.19630   0.50963   0.00000  Uiso   1.00
H234   H     0.67279   0.21710   0.53261   0.00000  Uiso   1.00
O235   O     0.66701   0.24791   0.59974   0.00000  Uiso   1.00
O236   O     0.73088   0.31898   0.52983   0.00000  Uiso   1.00
H237   H     0.69343   0.35954   0.49722   0.00000  Uiso   1.00
H238   H     0.60229   0.25735   0.59601   0.00000  Uiso   1.00
H239   H     0.63813   0.37969   0.47225   0.00000  Uiso   1.00
H240   H     0.46623   0.38789   0.51600   0.00000  Uiso   1.00
H241   H     0.51372   0.39062   0.51742   0.00000  Uiso   1.00
H242   H     0.43325   0.38138   0.45225   0.00000  Uiso   1.00
H243   H     0.54699   0.27732   0.57088   0.00000  Uiso   1.00
H244   H     0.52057   0.27200   0.41522   0.00000  Uiso   1.00
O245   O     0.50776   0.30480   0.52682   0.00000  Uiso   1.00
O246   O     0.57167   0.37709   0.45794   0.00000  Uiso   1.00
H247   H     0.48872   0.41775   0.49046   0.00000  Uiso   1.00
H248   H     0.72382   0.96246   0.02021   0.00000  Uiso   1.00
C249   C     0.80766   0.09273   0.69369   0.00000  Uiso   1.00
C250   C     0.77572   0.10743   0.69612   0.00000  Uiso   1.00
C251   C     0.75628   0.10029   0.72279   0.00000  Uiso   1.00
C252   C     0.76906   0.07825   0.74753   0.00000  Uiso   1.00
C253   C     0.80093   0.06312   0.74500   0.00000  Uiso   1.00
C254   C     0.81980   0.07039   0.71816   0.00000  Uiso   1.00
C255   C     0.72224   0.11638   0.72498   0.00000  Uiso   1.00
C256   C     0.81536   0.03972   0.77118   0.00000  Uiso   1.00
C257   C     0.72805   0.04099   0.77499   0.00000  Uiso   1.00
C258   C     0.71447   0.03021   0.80400   0.00000  Uiso   1.00
C259   C     0.72279   0.05162   0.83331   0.00000  Uiso   1.00
C260   C     0.74342   0.08381   0.83288   0.00000  Uiso   1.00
C261   C     0.75697   0.09319   0.80341   0.00000  Uiso   1.00
C262   C     0.69399   0.99806   0.80473   0.00000  Uiso   1.00
C263   C     0.68311   0.98669   0.83447   0.00000  Uiso   1.00
C264   C     0.69199   1.00747   0.86401   0.00000  Uiso   1.00
C265   C     0.71127   0.04034   0.86330   0.00000  Uiso   1.00
C266   C     0.71984   0.06160   0.89269   0.00000  Uiso   1.00
C267   C     0.73944   0.09418   0.89174   0.00000  Uiso   1.00
C268   C     0.75115   0.10515   0.86217   0.00000  Uiso   1.00
C269   C     0.68273   0.99590   0.89447   0.00000  Uiso   1.00
C270   C     0.70915   0.04930   0.92243   0.00000  Uiso   1.00
C271   C     0.68412   1.00296   0.95414   0.00000  Uiso   1.00
C272   C     0.61901   1.01435   0.94093   0.00000  Uiso   1.00
C273   C     0.64114   0.98223   0.99034   0.00000  Uiso   1.00
C274   C     0.74890   0.99187   0.96713   0.00000  Uiso   1.00
C275   C     0.70310   0.97326   0.00421   0.00000  Uiso   1.00
C276   C     0.71137   0.98981   0.97554   0.00000  Uiso   1.00
C277   C     0.64893   0.99989   0.96216   0.00000  Uiso   1.00
C278   C     0.66794   0.96856   0.01121   0.00000  Uiso   1.00
H279   H     0.75989   1.01946   0.96655   0.00000  Uiso   1.00
N280   N     0.75008   0.07122   0.77556   0.00000  Uiso   1.00
N281   N     0.69181   1.01663   0.92297   0.00000  Uiso   1.00
H282   H     0.74927   0.97869   0.94243   0.00000  Uiso   1.00
H283   H     0.76601   0.12464   0.67734   0.00000  Uiso   1.00
H284   H     0.84455   0.05910   0.71681   0.00000  Uiso   1.00
H285   H     0.71545   0.13243   0.70341   0.00000  Uiso   1.00
H286   H     0.70018   0.09553   0.72549   0.00000  Uiso   1.00
H287   H     0.72477   0.13333   0.74800   0.00000  Uiso   1.00
H288   H     0.79594   0.01666   0.77244   0.00000  Uiso   1.00
H289   H     0.84068   0.03026   0.76560   0.00000  Uiso   1.00
H290   H     0.82045   0.05405   0.79578   0.00000  Uiso   1.00
O291   O     0.77838   0.12378   0.80293   0.00000  Uiso   1.00
O292   O     0.72060   0.02025   0.74632   0.00000  Uiso   1.00
H293   H     0.68701   0.98120   0.78251   0.00000  Uiso   1.00
H294   H     0.76679   0.13011   0.86248   0.00000  Uiso   1.00
H295   H     0.66817   0.96137   0.83433   0.00000  Uiso   1.00
H296   H     0.60583   0.03209   0.95642   0.00000  Uiso   1.00
H297   H     0.62819   1.02939   0.92032   0.00000  Uiso   1.00
H298   H     0.61395   0.97891   0.99585   0.00000  Uiso   1.00
H299   H     0.74642   0.11101   0.91398   0.00000  Uiso   1.00
H300   H     0.76667   0.97912   0.98569   0.00000  Uiso   1.00
O301   O     0.71688   0.06981   0.95123   0.00000  Uiso   1.00
O302   O     0.66516   0.96335   0.89582   0.00000  Uiso   1.00
H303   H     0.59918   0.99269   0.93018   0.00000  Uiso   1.00
H304   H     0.71336   0.88361   0.18696   0.00000  Uiso   1.00
C305   C     0.81219   0.07532   0.53801   0.00000  Uiso   1.00
C306   C     0.78644   0.08450   0.51299   0.00000  Uiso   1.00
C307   C     0.77884   0.06510   0.48276   0.00000  Uiso   1.00
C308   C     0.79672   0.03544   0.47763   0.00000  Uiso   1.00
C309   C     0.82167   0.02518   0.50316   0.00000  Uiso   1.00
C310   C     0.82920   0.04528   0.53324   0.00000  Uiso   1.00
C311   C     0.75299   0.07722   0.45551   0.00000  Uiso   1.00
C312   C     0.84111   0.99376   0.49789   0.00000  Uiso   1.00
C313   C     0.80959   0.02617   0.42123   0.00000  Uiso   1.00
C314   C     0.79976   0.01200   0.38865   0.00000  Uiso   1.00
C315   C     0.76956   0.98756   0.38201   0.00000  Uiso   1.00
C316   C     0.75074   0.97649   0.40812   0.00000  Uiso   1.00
C317   C     0.76169   0.99129   0.44032   0.00000  Uiso   1.00
C318   C     0.81856   0.02256   0.36246   0.00000  Uiso   1.00
C319   C     0.80679   0.00990   0.32991   0.00000  Uiso   1.00
C320   C     0.77600  -0.01354   0.32285   0.00000  Uiso   1.00
C321   C     0.75759   0.97486   0.34905   0.00000  Uiso   1.00
C322   C     0.72674   0.95127   0.34225   0.00000  Uiso   1.00
C323   C     0.70887   0.93952   0.36864   0.00000  Uiso   1.00
C324   C     0.72080   0.95194   0.40124   0.00000  Uiso   1.00
C325   C     0.76250   0.97500   0.29011   0.00000  Uiso   1.00
C326   C     0.71404   0.94080   0.30905   0.00000  Uiso   1.00
C327   C     0.71615   0.94539   0.24980   0.00000  Uiso   1.00
C328   C     0.68635   0.00203   0.24918   0.00000  Uiso   1.00
C329   C     0.68236   0.96207   0.19893   0.00000  Uiso   1.00
C330   C     0.74475   0.88869   0.25075   0.00000  Uiso   1.00
C331   C     0.70870   0.90755   0.19968   0.00000  Uiso   1.00
C332   C     0.72269   0.91438   0.23315   0.00000  Uiso   1.00
C333   C     0.69540   0.96914   0.23257   0.00000  Uiso   1.00
C334   C     0.68890   0.93139   0.18238   0.00000  Uiso   1.00
H335   H     0.73194   0.87876   0.27212   0.00000  Uiso   1.00
N336   N     0.78988   0.01642   0.44595   0.00000  Uiso   1.00
N337   N     0.73152   0.95339   0.28377   0.00000  Uiso   1.00
H338   H     0.77173   0.90150   0.25982   0.00000  Uiso   1.00
H339   H     0.77335   0.10784   0.51639   0.00000  Uiso   1.00
H340   H     0.84929   0.03830   0.55243   0.00000  Uiso   1.00
H341   H     0.74123   0.10079   0.46360   0.00000  Uiso   1.00
H342   H     0.76687   0.08379   0.43376   0.00000  Uiso   1.00
H343   H     0.73097   0.05651   0.44783   0.00000  Uiso   1.00
H344   H     0.85724   0.99787   0.47718   0.00000  Uiso   1.00
H345   H     0.85919   0.98870   0.52041   0.00000  Uiso   1.00
H346   H     0.82186   0.97036   0.49159   0.00000  Uiso   1.00
O347   O     0.74299   0.98175   0.46590   0.00000  Uiso   1.00
O348   O     0.83805   0.05106   0.42795   0.00000  Uiso   1.00
H349   H     0.84202   0.04111   0.36688   0.00000  Uiso   1.00
H350   H     0.70606   0.94278   0.42091   0.00000  Uiso   1.00
H351   H     0.82157   0.01896   0.31023   0.00000  Uiso   1.00
H352   H     0.65704   0.00243   0.24627   0.00000  Uiso   1.00
H353   H     0.69604   0.00451   0.27616   0.00000  Uiso   1.00
H354   H     0.66639   0.98026   0.18585   0.00000  Uiso   1.00
H355   H     0.68534   0.92107   0.36415   0.00000  Uiso   1.00
H356   H     0.74760   0.86604   0.23395   0.00000  Uiso   1.00
O357   O     0.68327   0.91888   0.30184   0.00000  Uiso   1.00
O358   O     0.77975   0.98655   0.26421   0.00000  Uiso   1.00
H359   H     0.69826   0.02489   0.23719   0.00000  Uiso   1.00
H360   H     0.24740   0.61379   0.80704   0.00000  Uiso   1.00
C361   C     0.33219   0.46942   0.46260   0.00000  Uiso   1.00
C362   C     0.29691   0.46691   0.46938   0.00000  Uiso   1.00
C363   C     0.28800   0.48334   0.49820   0.00000  Uiso   1.00
C364   C     0.31463   0.50357   0.51995   0.00000  Uiso   1.00
C365   C     0.34972   0.50815   0.51187   0.00000  Uiso   1.00
C366   C     0.35832   0.49043   0.48359   0.00000  Uiso   1.00
C367   C     0.25063   0.47756   0.50670   0.00000  Uiso   1.00
C368   C     0.37809   0.53097   0.53387   0.00000  Uiso   1.00
C369   C     0.31555   0.49587   0.57894   0.00000  Uiso   1.00
C370   C     0.30651   0.50517   0.61032   0.00000  Uiso   1.00
C371   C     0.28799   0.53459   0.61382   0.00000  Uiso   1.00
C372   C     0.27995   0.55492   0.58628   0.00000  Uiso   1.00
C373   C     0.29022   0.54500   0.55543   0.00000  Uiso   1.00
C374   C     0.31492   0.48536   0.63803   0.00000  Uiso   1.00
C375   C     0.30435   0.49418   0.66870   0.00000  Uiso   1.00
C376   C     0.28491   0.52283   0.67227   0.00000  Uiso   1.00
C377   C     0.27695   0.54332   0.64481   0.00000  Uiso   1.00
C378   C     0.25743   0.57206   0.64811   0.00000  Uiso   1.00
C379   C     0.25004   0.59255   0.62065   0.00000  Uiso   1.00
C380   C     0.26131   0.58416   0.59012   0.00000  Uiso   1.00
C381   C     0.27240   0.53111   0.70242   0.00000  Uiso   1.00
C382   C     0.24506   0.57908   0.67865   0.00000  Uiso   1.00
C383   C     0.23609   0.56361   0.73464   0.00000  Uiso   1.00
C384   C     0.18432   0.51841   0.71221   0.00000  Uiso   1.00
C385   C     0.18656   0.55178   0.76616   0.00000  Uiso   1.00
C386   C     0.28808   0.60734   0.75715   0.00000  Uiso   1.00
C387   C     0.23541   0.59430   0.78807   0.00000  Uiso   1.00
C388   C     0.25258   0.58792   0.76006   0.00000  Uiso   1.00
C389   C     0.20311   0.54503   0.73811   0.00000  Uiso   1.00
C390   C     0.20213   0.57670   0.79095   0.00000  Uiso   1.00
H391   H     0.28593   0.62335   0.73496   0.00000  Uiso   1.00
N392   N     0.30704   0.51550   0.55219   0.00000  Uiso   1.00
N393   N     0.25231   0.55831   0.70486   0.00000  Uiso   1.00
H394   H     0.30793   0.58851   0.75462   0.00000  Uiso   1.00
H395   H     0.27679   0.45021   0.45342   0.00000  Uiso   1.00
H396   H     0.38556   0.49234   0.47822   0.00000  Uiso   1.00
H397   H     0.23329   0.45990   0.48796   0.00000  Uiso   1.00
H398   H     0.25074   0.46572   0.53124   0.00000  Uiso   1.00
H399   H     0.23905   0.50278   0.50777   0.00000  Uiso   1.00
H400   H     0.38213   0.52043   0.55898   0.00000  Uiso   1.00
H401   H     0.40387   0.53263   0.52364   0.00000  Uiso   1.00
H402   H     0.36990   0.55769   0.53608   0.00000  Uiso   1.00
O403   O     0.28249   0.56440   0.52829   0.00000  Uiso   1.00
O404   O     0.33213   0.46628   0.57488   0.00000  Uiso   1.00
H405   H     0.32948   0.46283   0.63608   0.00000  Uiso   1.00
H406   H     0.25497   0.60039   0.56945   0.00000  Uiso   1.00
H407   H     0.31104   0.47816   0.68946   0.00000  Uiso   1.00
H408   H     0.15723   0.52562   0.70384   0.00000  Uiso   1.00
H409   H     0.19830   0.51619   0.69000   0.00000  Uiso   1.00
H410   H     0.16091   0.53787   0.76826   0.00000  Uiso   1.00
H411   H     0.23527   0.61495   0.62259   0.00000  Uiso   1.00
H412   H     0.29768   0.62488   0.77939   0.00000  Uiso   1.00
O413   O     0.22464   0.60605   0.68187   0.00000  Uiso   1.00
O414   O     0.27918   0.51089   0.72918   0.00000  Uiso   1.00
H415   H     0.18200   0.49253   0.72324   0.00000  Uiso   1.00
H416   H     0.27677   0.37739   0.29039   0.00000  Uiso   1.00
C417   C     0.16293   0.55081   0.96113   0.00000  Uiso   1.00
C418   C     0.19902   0.55856   0.97294   0.00000  Uiso   1.00
C419   C     0.21407   0.54345   1.00163   0.00000  Uiso   1.00
C420   C     0.19284   0.51936   0.01803   0.00000  Uiso   1.00
C421   C     0.15702   0.50986   1.00479   0.00000  Uiso   1.00
C422   C     0.14216   0.52634   0.97693   0.00000  Uiso   1.00
C423   C     0.25217   0.55420   0.01550   0.00000  Uiso   1.00
C424   C     0.13451   0.48263   0.02055   0.00000  Uiso   1.00
C425   C     0.19840   0.52396   0.07813   0.00000  Uiso   1.00
C426   C     0.21133   0.51338   0.10971   0.00000  Uiso   1.00
C427   C     0.23362   0.48633   0.11207   0.00000  Uiso   1.00
C428   C     0.24215   0.47000   0.08294   0.00000  Uiso   1.00
C429   C     0.22777   0.48084   0.05181   0.00000  Uiso   1.00
C430   C     0.20256   0.52921   0.13888   0.00000  Uiso   1.00
C431   C     0.21561   0.51817   0.17003   0.00000  Uiso   1.00
C432   C     0.23827   0.49153   0.17273   0.00000  Uiso   1.00
C433   C     0.24752   0.47573   0.14366   0.00000  Uiso   1.00
C434   C     0.27067   0.44942   0.14611   0.00000  Uiso   1.00
C435   C     0.27906   0.43330   0.11688   0.00000  Uiso   1.00
C436   C     0.26482   0.44335   0.08566   0.00000  Uiso   1.00
C437   C     0.25195   0.48021   0.20383   0.00000  Uiso   1.00
C438   C     0.28482   0.43989   0.17781   0.00000  Uiso   1.00
C439   C     0.28873   0.44403   0.23825   0.00000  Uiso   1.00
C440   C     0.33118   0.49999   0.24880   0.00000  Uiso   1.00
C441   C     0.32499   0.45628   0.29199   0.00000  Uiso   1.00
C442   C     0.24615   0.38884   0.22834   0.00000  Uiso   1.00
C443   C     0.28708   0.40210   0.28173   0.00000  Uiso   1.00
C444   C     0.27488   0.41196   0.24967   0.00000  Uiso   1.00
C445   C     0.31445   0.46604   0.25958   0.00000  Uiso   1.00
C446   C     0.31159   0.42440   0.30310   0.00000  Uiso   1.00
H447   H     0.25625   0.37923   0.20563   0.00000  Uiso   1.00
N448   N     0.20650   0.50753   0.04998   0.00000  Uiso   1.00
N449   N     0.27500   0.45503   0.20590   0.00000  Uiso   1.00
H450   H     0.22307   0.40364   0.22106   0.00000  Uiso   1.00
H451   H     0.21486   0.57788   0.96088   0.00000  Uiso   1.00
H452   H     0.11420   0.52052   0.96779   0.00000  Uiso   1.00
H453   H     0.26458   0.57474   1.00095   0.00000  Uiso   1.00
H454   H     0.25368   0.56454   0.04156   0.00000  Uiso   1.00
H455   H     0.26771   0.53140   0.01496   0.00000  Uiso   1.00
H456   H     0.13231   0.49091   0.04658   0.00000  Uiso   1.00
H457   H     0.10726   0.47788   1.00692   0.00000  Uiso   1.00
H458   H     0.14676   0.45772   0.02036   0.00000  Uiso   1.00
O459   O     0.23518   0.46476   0.02316   0.00000  Uiso   1.00
O460   O     0.17754   0.55104   0.07549   0.00000  Uiso   1.00
H461   H     0.18546   0.55006   0.13775   0.00000  Uiso   1.00
H462   H     0.27181   0.43034   0.06368   0.00000  Uiso   1.00
H463   H     0.20810   0.53078   0.19197   0.00000  Uiso   1.00
H464   H     0.36057   0.50059   0.25322   0.00000  Uiso   1.00
H465   H     0.32371   0.50400   0.22205   0.00000  Uiso   1.00
H466   H     0.34449   0.47323   0.30839   0.00000  Uiso   1.00
H467   H     0.29650   0.41275   0.11802   0.00000  Uiso   1.00
H468   H     0.23671   0.36585   0.24165   0.00000  Uiso   1.00
O469   O     0.30862   0.41537   0.18062   0.00000  Uiso   1.00
O470   O     0.24216   0.49457   0.23231   0.00000  Uiso   1.00
H471   H     0.32301   0.52190   0.26351   0.00000  Uiso   1.00
H472   H     0.92683   0.20217   0.54143   0.00000  Uiso   1.00
C473   C     0.27375   0.30653   0.40072   0.00000  Uiso   1.00
C474   C     0.27242   0.27032   0.40320   0.00000  Uiso   1.00
C475   C     0.24288   0.25162   0.41420   0.00000  Uiso   1.00
C476   C     0.21408   0.26942   0.42199   0.00000  Uiso   1.00
C477   C     0.21493   0.30562   0.41851   0.00000  Uiso   1.00
C478   C     0.24475   0.32381   0.40813   0.00000  Uiso   1.00
C479   C     0.24250   0.21307   0.41840   0.00000  Uiso   1.00
C480   C     0.18433   0.32497   0.42647   0.00000  Uiso   1.00
C481   C     0.18419   0.25157   0.46863   0.00000  Uiso   1.00
C482   C     0.15378   0.23823   0.48201   0.00000  Uiso   1.00
C483   C     0.12372   0.22406   0.46025   0.00000  Uiso   1.00
C484   C     0.12469   0.22304   0.42567   0.00000  Uiso   1.00
C485   C     0.15566   0.23701   0.41342   0.00000  Uiso   1.00
C486   C     0.15248   0.23940   0.51643   0.00000  Uiso   1.00
C487   C     0.12165   0.22678   0.52916   0.00000  Uiso   1.00
C488   C     0.09146   0.21278   0.50770   0.00000  Uiso   1.00
C489   C     0.09250   0.21128   0.47315   0.00000  Uiso   1.00
C490   C     0.06232   0.19720   0.45145   0.00000  Uiso   1.00
C491   C     0.06372   0.19589   0.41702   0.00000  Uiso   1.00
C492   C     0.09454   0.20877   0.40425   0.00000  Uiso   1.00
C493   C     0.06012   0.20027   0.51999   0.00000  Uiso   1.00
C494   C     0.03151   0.18487   0.46495   0.00000  Uiso   1.00
C495   C    -0.00032   0.17345   0.51235   0.00000  Uiso   1.00
C496   C     0.02431   0.11458   0.51922   0.00000  Uiso   1.00
C497   C     0.97077   0.12963   0.54394   0.00000  Uiso   1.00
C498   C     0.97460   0.23132   0.50389   0.00000  Uiso   1.00
C499   C     0.94630   0.18470   0.53650   0.00000  Uiso   1.00
C500   C     0.97327   0.19561   0.51747   0.00000  Uiso   1.00
C501   C    -0.00240   0.13977   0.52475   0.00000  Uiso   1.00
C502   C     0.94563   0.15225   0.55080   0.00000  Uiso   1.00
H503   H     0.97310   0.22906   0.47641   0.00000  Uiso   1.00
N504   N     0.18439   0.25129   0.43494   0.00000  Uiso   1.00
N505   N     0.03097   0.18676   0.49858   0.00000  Uiso   1.00
H506   H    -0.00022   0.24687   0.51438   0.00000  Uiso   1.00
H507   H     0.29478   0.25688   0.39758   0.00000  Uiso   1.00
H508   H     0.24535   0.35172   0.40581   0.00000  Uiso   1.00
H509   H     0.26677   0.20292   0.41095   0.00000  Uiso   1.00
H510   H     0.24105   0.20741   0.44485   0.00000  Uiso   1.00
H511   H     0.21906   0.19908   0.40283   0.00000  Uiso   1.00
H512   H     0.18141   0.32329   0.45324   0.00000  Uiso   1.00
H513   H     0.18833   0.35292   0.42099   0.00000  Uiso   1.00
H514   H     0.15938   0.31341   0.41143   0.00000  Uiso   1.00
O515   O     0.15670   0.23749   0.37977   0.00000  Uiso   1.00
O516   O     0.21344   0.26621   0.48945   0.00000  Uiso   1.00
H517   H     0.17517   0.25031   0.53365   0.00000  Uiso   1.00
H518   H     0.09458   0.20767   0.37756   0.00000  Uiso   1.00
H519   H     0.12152   0.22816   0.55583   0.00000  Uiso   1.00
H520   H     0.01019   0.08957   0.50815   0.00000  Uiso   1.00
H521   H     0.04312   0.12424   0.50211   0.00000  Uiso   1.00
H522   H     0.97010   0.10410   0.55418   0.00000  Uiso   1.00
H523   H     0.04097   0.18510   0.39981   0.00000  Uiso   1.00
H524   H     0.95209   0.24542   0.51021   0.00000  Uiso   1.00
O525   O     0.00195   0.17061   0.44436   0.00000  Uiso   1.00
O526   O     0.05868   0.20147   0.55363   0.00000  Uiso   1.00
H527   H     0.03975   0.10970   0.54337   0.00000  Uiso   1.00
H528   H     0.08832   0.67791   0.77936   0.00000  Uiso   1.00
C529   C     0.96309   0.02473   0.66483   0.00000  Uiso   1.00
C530   C     0.98533   0.03184   0.69499   0.00000  Uiso   1.00
C531   C     1.00476   0.00608   0.70958   0.00000  Uiso   1.00
C532   C     1.00233   0.97286   0.69338   0.00000  Uiso   1.00
C533   C     0.98214   0.96649   0.66177   0.00000  Uiso   1.00
C534   C     0.96258  -0.00753   0.64778   0.00000  Uiso   1.00
C535   C     1.02644   0.01349   0.74312   0.00000  Uiso   1.00
C536   C     0.98012   0.93154   0.64366   0.00000  Uiso   1.00
C537   C     0.99426   0.92515   0.72930   0.00000  Uiso   1.00
C538   C     1.00545   0.89557   0.74480   0.00000  Uiso   1.00
C539   C     0.03963   0.88610   0.74151   0.00000  Uiso   1.00
C540   C     0.06227   0.90666   0.72338   0.00000  Uiso   1.00
C541   C     0.04972   0.93595   0.70798   0.00000  Uiso   1.00
C542   C     0.98304   0.87500   0.76295   0.00000  Uiso   1.00
C543   C     0.99411   0.84486   0.77703   0.00000  Uiso   1.00
C544   C     1.02789   0.83483   0.77345   0.00000  Uiso   1.00
C545   C     0.05096   0.85574   0.75606   0.00000  Uiso   1.00
C546   C     0.08519   0.84621   0.75301   0.00000  Uiso   1.00
C547   C     0.10788   0.86728   0.73548   0.00000  Uiso   1.00
C548   C     0.09649   0.89710   0.72069   0.00000  Uiso   1.00
C549   C     0.03916   0.80421   0.78675   0.00000  Uiso   1.00
C550   C     0.09566   0.81569   0.76754   0.00000  Uiso   1.00
C551   C     0.08327   0.76410   0.79857   0.00000  Uiso   1.00
C552   C     0.09500   0.79637   0.85561   0.00000  Uiso   1.00
C553   C     0.09678   0.73228   0.84825   0.00000  Uiso   1.00
C554   C     0.07263   0.73266   0.74176   0.00000  Uiso   1.00
C555   C     0.08893   0.70185   0.79425   0.00000  Uiso   1.00
C556   C     0.08207   0.73295   0.77889   0.00000  Uiso   1.00
C557   C     0.09163   0.76379   0.83345   0.00000  Uiso   1.00
C558   C     0.09521   0.70133   0.82892   0.00000  Uiso   1.00
H559   H     0.09275   0.74978   0.73085   0.00000  Uiso   1.00
N560   N     1.01608   0.94428   0.71085   0.00000  Uiso   1.00
N561   N     0.07248   0.79523   0.78359   0.00000  Uiso   1.00
H562   H     0.04616   0.74220   0.73560   0.00000  Uiso   1.00
H563   H     0.98625   0.05700   0.70794   0.00000  Uiso   1.00
H564   H     0.94621  -0.01279   0.62400   0.00000  Uiso   1.00
H565   H     0.02612   0.04092   0.75217   0.00000  Uiso   1.00
H566   H     1.01554   0.99621   0.76148   0.00000  Uiso   1.00
H567   H     0.05446   0.00874   0.74158   0.00000  Uiso   1.00
H568   H     0.96788   0.91109   0.65839   0.00000  Uiso   1.00
H569   H     0.96391   0.93103   0.61892   0.00000  Uiso   1.00
H570   H     1.00723   0.92548   0.63983   0.00000  Uiso   1.00
O571   O     0.07094   0.95581   0.68944   0.00000  Uiso   1.00
O572   O     0.96081   0.93442   0.73194   0.00000  Uiso   1.00
H573   H     0.95674   0.88187   0.76605   0.00000  Uiso   1.00
H574   H     0.11451   0.91248   0.70701   0.00000  Uiso   1.00
H575   H     0.97609   0.82943   0.79065   0.00000  Uiso   1.00
H576   H     0.12165   0.79963   0.87052   0.00000  Uiso   1.00
H577   H     0.09210   0.82020   0.84154   0.00000  Uiso   1.00
H578   H     0.10281   0.73200   0.87505   0.00000  Uiso   1.00
H579   H     0.13436   0.86061   0.73286   0.00000  Uiso   1.00
H580   H     0.07163   0.70612   0.73008   0.00000  Uiso   1.00
O581   O     0.12925   0.80644   0.76576   0.00000  Uiso   1.00
O582   O     1.01667   0.78320   0.80318   0.00000  Uiso   1.00
H583   H     0.07444   0.79425   0.87272   0.00000  Uiso   1.00
H584   H     0.89306   0.20871   0.67211   0.00000  Uiso   1.00
C585   C     0.06891   0.52343   0.87502   0.00000  Uiso   1.00
C586   C     0.07842   0.49471   0.89299   0.00000  Uiso   1.00
C587   C     0.05760   0.46257   0.88784   0.00000  Uiso   1.00
C588   C     0.02780   0.45882   0.86317   0.00000  Uiso   1.00
C589   C     0.01620   0.48854   0.84756   0.00000  Uiso   1.00
C590   C     0.03659   0.52086   0.85412   0.00000  Uiso   1.00
C591   C     0.06845   0.43182   0.90693   0.00000  Uiso   1.00
C592   C    -0.01596   0.48512   0.82165   0.00000  Uiso   1.00
C593   C     0.98754   0.40498   0.85778   0.00000  Uiso   1.00
C594   C     0.97583   0.37207   0.84194   0.00000  Uiso   1.00
C595   C     0.99361   0.36011   0.81599   0.00000  Uiso   1.00
C596   C     0.02261   0.38090   0.80640   0.00000  Uiso   1.00
C597   C     0.03332   0.41332   0.82286   0.00000  Uiso   1.00
C598   C     0.94680   0.35100   0.85109   0.00000  Uiso   1.00
C599   C     0.93550   0.31864   0.83459   0.00000  Uiso   1.00
C600   C     0.95293   0.30666   0.80851   0.00000  Uiso   1.00
C601   C     0.98220   0.32745   0.79931   0.00000  Uiso   1.00
C602   C     0.99993   0.31581   0.77322   0.00000  Uiso   1.00
C603   C     0.02895   0.33677   0.76404   0.00000  Uiso   1.00
C604   C     0.04009   0.36899   0.78041   0.00000  Uiso   1.00
C605   C     0.94158   0.27465   0.79090   0.00000  Uiso   1.00
C606   C     0.98778   0.28369   0.75651   0.00000  Uiso   1.00
C607   C     0.94514   0.23293   0.74531   0.00000  Uiso   1.00
C608   C     0.98433   0.19643   0.78273   0.00000  Uiso   1.00
C609   C     0.94819   0.17182   0.73006   0.00000  Uiso   1.00
C610   C     0.90621   0.26943   0.70848   0.00000  Uiso   1.00
C611   C     0.91103   0.20637   0.69462   0.00000  Uiso   1.00
C612   C     0.92085   0.23546   0.71650   0.00000  Uiso   1.00
C613   C     0.95843   0.20068   0.75238   0.00000  Uiso   1.00
C614   C     0.92519   0.17479   0.70082   0.00000  Uiso   1.00
H615   H     0.92818   0.28942   0.70500   0.00000  Uiso   1.00
N616   N     0.01575   0.42484   0.84792   0.00000  Uiso   1.00
N617   N     0.95881   0.26407   0.76522   0.00000  Uiso   1.00
H618   H     0.89219   0.27838   0.72908   0.00000  Uiso   1.00
H619   H     0.10316   0.49685   0.90954   0.00000  Uiso   1.00
H620   H     0.02903   0.54317   0.84048   0.00000  Uiso   1.00
H621   H     0.09170   0.43922   0.92604   0.00000  Uiso   1.00
H622   H     0.04605   0.42104   0.91979   0.00000  Uiso   1.00
H623   H     0.07541   0.41130   0.88978   0.00000  Uiso   1.00
H624   H     0.96050   0.47401   0.83274   0.00000  Uiso   1.00
H625   H    -0.02167   0.51070   0.81175   0.00000  Uiso   1.00
H626   H    -0.01161   0.46762   0.80056   0.00000  Uiso   1.00
O627   O     0.06150   0.43390   0.81355   0.00000  Uiso   1.00
O628   O     0.97054   0.41732   0.88296   0.00000  Uiso   1.00
H629   H     0.93263   0.35950   0.87091   0.00000  Uiso   1.00
H630   H     0.06235   0.38463   0.77252   0.00000  Uiso   1.00
H631   H     0.91290   0.30318   0.84217   0.00000  Uiso   1.00
H632   H     1.00920   0.18789   0.77505   0.00000  Uiso   1.00
H633   H     0.99127   0.22085   0.79833   0.00000  Uiso   1.00
H634   H     0.95899   0.14733   0.73507   0.00000  Uiso   1.00
H635   H     0.04299   0.32849   0.74402   0.00000  Uiso   1.00
H636   H     0.88707   0.26690   0.68534   0.00000  Uiso   1.00
O637   O     1.00451   0.27233   0.73069   0.00000  Uiso   1.00
O638   O     0.91273   0.25426   0.79906   0.00000  Uiso   1.00
H639   H     0.97262   0.17636   0.79818   0.00000  Uiso   1.00
H640   H     0.02988   0.62243   1.00286   0.00000  Uiso   1.00
C641   C     0.69879   0.80923   0.07606   0.00000  Uiso   1.00
C642   C     0.71492   0.81549   0.04724   0.00000  Uiso   1.00
C643   C     0.74276   0.79675   0.03961   0.00000  Uiso   1.00
C644   C     0.75484   0.77140   0.06118   0.00000  Uiso   1.00
C645   C     0.73764   0.76362   0.08918   0.00000  Uiso   1.00
C646   C     0.70967   0.78252   0.09633   0.00000  Uiso   1.00
C647   C     0.76023   0.80441   1.00902   0.00000  Uiso   1.00
C648   C     0.74985   0.73606   0.11196   0.00000  Uiso   1.00
C649   C     0.81864   0.77074   0.07047   0.00000  Uiso   1.00
C650   C     0.85003   0.75730   0.06375   0.00000  Uiso   1.00
C651   C     0.84767   0.72803   0.04162   0.00000  Uiso   1.00
C652   C     0.81413   0.71208   1.02741   0.00000  Uiso   1.00
C653   C     0.78347   0.72634   0.03507   0.00000  Uiso   1.00
C654   C     0.88359   0.77285   0.07798   0.00000  Uiso   1.00
C655   C     0.91450   0.76001   0.06965   0.00000  Uiso   1.00
C656   C     0.91247   0.73156   0.04673   0.00000  Uiso   1.00
C657   C     0.87893   0.71523   1.03301   0.00000  Uiso   1.00
C658   C     0.87655   0.68668   1.01002   0.00000  Uiso   1.00
C659   C     0.84300   0.67031   0.99679   0.00000  Uiso   1.00
C660   C     0.81210   0.68287   1.00541   0.00000  Uiso   1.00
C661   C     0.94310   0.71962   1.03628   0.00000  Uiso   1.00
C662   C     0.90787   0.67594   1.00007   0.00000  Uiso   1.00
C663   C     0.97135   0.68420   0.99895   0.00000  Uiso   1.00
C664   C     0.96483   0.73283   0.95799   0.00000  Uiso   1.00
C665   C     0.01141   0.69190   0.95709   0.00000  Uiso   1.00
C666   C     0.97753   0.63611   0.03956   0.00000  Uiso   1.00
C667   C     0.01711   0.64514   0.99492   0.00000  Uiso   1.00
C668   C     0.98904   0.65573   1.01076   0.00000  Uiso   1.00
C669   C     0.98295   0.70265   0.97213   0.00000  Uiso   1.00
C670   C     0.02798   0.66295   0.96802   0.00000  Uiso   1.00
H671   H     0.95005   0.62347   1.03291   0.00000  Uiso   1.00
N672   N     0.78630   0.75542   0.05581   0.00000  Uiso   1.00
N673   N     0.94019   0.69297   1.01267   0.00000  Uiso   1.00
H674   H     0.97844   0.65434   0.06148   0.00000  Uiso   1.00
H675   H     0.70660   0.83574   0.03113   0.00000  Uiso   1.00
H676   H     0.69735   0.77727   0.11851   0.00000  Uiso   1.00
H677   H     0.74793   0.82501   0.99467   0.00000  Uiso   1.00
H678   H     0.78883   0.81318   1.01615   0.00000  Uiso   1.00
H679   H     0.75770   0.78054   0.99253   0.00000  Uiso   1.00
H680   H     0.77782   0.74332   0.12299   0.00000  Uiso   1.00
H681   H     0.73340   0.73262   0.13255   0.00000  Uiso   1.00
H682   H     0.74810   0.71079   0.09769   0.00000  Uiso   1.00
O683   O     0.75057   0.71180   1.02085   0.00000  Uiso   1.00
O684   O     0.82039   0.80004   0.09100   0.00000  Uiso   1.00
H685   H     0.88610   0.79522   0.09527   0.00000  Uiso   1.00
H686   H     0.78666   0.66996   0.99439   0.00000  Uiso   1.00
H687   H     0.93994   0.77285   0.08076   0.00000  Uiso   1.00
H688   H     0.95414   0.72652   0.93154   0.00000  Uiso   1.00
H689   H     0.94247   0.73937   0.97124   0.00000  Uiso   1.00
H690   H     0.01970   0.70524   0.93586   0.00000  Uiso   1.00
H691   H     0.84050   0.64808   0.97935   0.00000  Uiso   1.00
H692   H     0.99515   0.61557   0.04658   0.00000  Uiso   1.00
O693   O     0.90601   0.64914   0.97658   0.00000  Uiso   1.00
O694   O     0.97600   0.73576   0.04861   0.00000  Uiso   1.00
H695   H     0.98432   0.75625   0.95944   0.00000  Uiso   1.00
H696   H     0.46574   0.45811   0.38488   0.00000  Uiso   1.00
C697   C     0.59298   0.78055   0.19972   0.00000  Uiso   1.00
C698   C     0.56526   0.75634   0.18481   0.00000  Uiso   1.00
C699   C     0.55436   0.72655   0.20096   0.00000  Uiso   1.00
C700   C     0.57104   0.72095   0.23303   0.00000  Uiso   1.00
C701   C     0.59818   0.74578   0.24877   0.00000  Uiso   1.00
C702   C     0.60935   0.77520   0.23176   0.00000  Uiso   1.00
C703   C     0.52515   0.70066   0.18376   0.00000  Uiso   1.00
C704   C     0.61455   0.74132   0.28379   0.00000  Uiso   1.00
C705   C     0.57912   0.66098   0.24513   0.00000  Uiso   1.00
C706   C     0.56697   0.62857   0.25653   0.00000  Uiso   1.00
C707   C     0.53554   0.62570   0.27154   0.00000  Uiso   1.00
C708   C     0.51740   0.65531   0.27583   0.00000  Uiso   1.00
C709   C     0.53092   0.68729   0.26460   0.00000  Uiso   1.00
C710   C     0.58499   0.59890   0.25262   0.00000  Uiso   1.00
C711   C     0.57185   0.56676   0.26336   0.00000  Uiso   1.00
C712   C     0.54014   0.56345   0.27779   0.00000  Uiso   1.00
C713   C     0.52190   0.59305   0.28182   0.00000  Uiso   1.00
C714   C     0.48985   0.59002   0.29581   0.00000  Uiso   1.00
C715   C     0.47213   0.61976   0.30024   0.00000  Uiso   1.00
C716   C     0.48585   0.65206   0.29049   0.00000  Uiso   1.00
C717   C     0.52601   0.53127   0.28826   0.00000  Uiso   1.00
C718   C     0.47630   0.55723   0.30505   0.00000  Uiso   1.00
C719   C     0.48017   0.49590   0.31238   0.00000  Uiso   1.00
C720   C     0.45370   0.47599   0.25286   0.00000  Uiso   1.00
C721   C     0.43875   0.44349   0.30213   0.00000  Uiso   1.00
C722   C     0.50940   0.51372   0.37085   0.00000  Uiso   1.00
C723   C     0.46398   0.46180   0.35841   0.00000  Uiso   1.00
C724   C     0.48429   0.48977   0.34668   0.00000  Uiso   1.00
C725   C     0.45823   0.47176   0.28984   0.00000  Uiso   1.00
C726   C     0.44030   0.43933   0.33640   0.00000  Uiso   1.00
H727   H     0.50088   0.54037   0.37080   0.00000  Uiso   1.00
N728   N     0.56081   0.68940   0.24893   0.00000  Uiso   1.00
N729   N     0.49453   0.52874   0.30139   0.00000  Uiso   1.00
H730   H     0.53661   0.51465   0.36364   0.00000  Uiso   1.00
H731   H     0.55250   0.76030   0.16005   0.00000  Uiso   1.00
H732   H     0.63049   0.79403   0.24354   0.00000  Uiso   1.00
H733   H     0.51587   0.70814   0.15821   0.00000  Uiso   1.00
H734   H     0.53482   0.67455   0.18196   0.00000  Uiso   1.00
H735   H     0.50211   0.69910   0.19806   0.00000  Uiso   1.00
H736   H     0.62723   0.71668   0.28515   0.00000  Uiso   1.00
H737   H     0.63504   0.76311   0.29274   0.00000  Uiso   1.00
H738   H     0.59361   0.74055   0.30054   0.00000  Uiso   1.00
O739   O     0.51329   0.71627   0.26818   0.00000  Uiso   1.00
O740   O     0.60876   0.66385   0.22901   0.00000  Uiso   1.00
H741   H     0.60921   0.60035   0.24114   0.00000  Uiso   1.00
H742   H     0.47140   0.67439   0.29411   0.00000  Uiso   1.00
H743   H     0.58641   0.54446   0.25998   0.00000  Uiso   1.00
H744   H     0.42545   0.47893   0.24399   0.00000  Uiso   1.00
H745   H     0.47020   0.49890   0.24550   0.00000  Uiso   1.00
H746   H     0.42057   0.42604   0.28499   0.00000  Uiso   1.00
H747   H     0.44758   0.61817   0.31121   0.00000  Uiso   1.00
H748   H     0.51043   0.50476   0.39660   0.00000  Uiso   1.00
O749   O     0.44468   0.55375   0.31812   0.00000  Uiso   1.00
O750   O     0.54369   0.50226   0.28516   0.00000  Uiso   1.00
H751   H     0.46140   0.45248   0.24014   0.00000  Uiso   1.00
loop_
_geom_bond_atom_site_label_1
_geom_bond_atom_site_label_2
_geom_bond_distance
_geom_bond_site_symmetry_2
_ccdc_geom_bond_type
C0     O4      1.278   .     A
C0     O5      1.285   .     A
C0     C390    1.475   .     S
Ho1    O4      2.153   .     S
Ho1    O5      2.183   .     S
Ho1    O6      2.205   .     S
Ho1    O7      2.182   .     S
Ho1    O10     2.292   .     S
Ho1    O15     2.148   .     S
Ho1    O17     2.195   .     S
C2     O12     1.282   .     A
C2     O13     1.276   .     A
C2     C670    1.457   .     S
Ho3    O7      2.177   .     S
Ho3    O11     2.198   .     S
Ho3    O12     2.184   .     S
Ho3    O13     2.162   .     S
Ho3    O14     2.212   .     S
Ho3    O15     2.109   .     S
Ho3    O16     2.207   .     S
O6     C8      1.225   .     D
O7     C8      1.387   .     S
C8     C585    1.472   .     S
C9     O14     1.226   .     D
C9     O15     1.379   .     S
C9     C110    1.461   .     S
O10    C19     1.326   .     A
O11    C19     1.304   .     A
O16    C18     1.298   .     A
O17    C18     1.296   .     A
C18    C558    1.466   .     S
C19    C417    1.469   .     S
C20    O24     1.271   .     A
C20    O25     1.280   .     A
C20    C697    1.479   .     S
Ho21   O24     2.163   .     S
Ho21   O25     2.202   .     S
Ho21   O26     2.225   .     S
Ho21   O27     2.168   .     S
Ho21   O30     2.233   .     S
Ho21   O35     2.156   .     S
Ho21   O37     2.235   .     S
C22    O32     1.280   .     A
C22    O33     1.279   .     A
C22    C278    1.472   .     S
Ho23   O27     2.151   .     S
Ho23   O31     2.230   .     S
Ho23   O32     2.176   .     S
Ho23   O33     2.170   .     S
Ho23   O34     2.238   .     S
Ho23   O35     2.173   .     S
Ho23   O36     2.203   .     S
O26    C28     1.203   .     D
O27    C28     1.363   .     S
C28    C81     1.470   .     S
C29    O34     1.207   .     D
C29    O35     1.361   .     S
C29    C334    1.472   .     S
O30    C39     1.311   .     A
O31    C39     1.314   .     A
O36    C38     1.304   .     A
O37    C38     1.312   .     A
C38    C641    1.482   .     S
C39    C166    1.477   .     S
C40    O44     1.283   .     A
C40    O45     1.281   .     A
C40    C193    1.476   .     S
Ho41   O44     2.175   .     S
Ho41   O45     2.188   .     S
Ho41   O46     2.175   .     S
Ho41   O47     2.168   .     S
Ho41   O50     2.217   .     S
Ho41   O55     2.128   .     S
Ho41   O57     2.204   .     S
C42    O52     1.281   .     A
C42    O53     1.280   .     A
C42    C529    1.474   .     S
Ho43   O47     2.175   .     S
Ho43   O51     2.180   .     S
Ho43   O52     2.178   .     S
Ho43   O53     2.178   .     S
Ho43   O54     2.213   .     S
Ho43   O55     2.139   .     S
Ho43   O56     2.197   .     S
O46    C48     1.230   .     D
O47    C48     1.404   .     S
C48    C305    1.475   .     S
C49    O54     1.228   .     D
C49    O55     1.381   .     S
C49    C614    1.471   .     S
O50    C59     1.311   .     A
O51    C59     1.303   .     A
O56    C58     1.296   .     A
O57    C58     1.297   .     A
C58    C249    1.484   .     S
C59    C502    1.477   .     S
C60    O64     1.277   .     A
C60    O65     1.283   .     A
C60    C137    1.477   .     S
Ho61   O64     2.169   .     S
Ho61   O65     2.207   .     S
Ho61   O66     2.188   .     S
Ho61   O67     2.167   .     S
Ho61   O70     2.209   .     S
Ho61   O75     2.148   .     S
Ho61   O77     2.218   .     S
C62    O72     1.279   .     A
C62    O73     1.275   .     A
C62    C361    1.474   .     S
Ho63   O67     2.155   .     S
Ho63   O71     2.193   .     S
Ho63   O72     2.192   .     S
Ho63   O73     2.179   .     S
Ho63   O74     2.206   .     S
Ho63   O75     2.175   .     S
Ho63   O76     2.197   .     S
O66    C68     1.227   .     D
O67    C68     1.394   .     S
C68    C222    1.476   .     S
C69    O74     1.222   .     D
C69    O75     1.381   .     S
C69    C446    1.471   .     S
O70    C79     1.295   .     A
O71    C79     1.295   .     A
O76    C78     1.309   .     A
O77    C78     1.313   .     A
C78    C473    1.477   .     S
C79    C726    1.473   .     S
H80    C107    1.084   .     S
C81    C82     1.400   .     A
C81    C86     1.400   .     A
C82    C83     1.406   .     A
C82    H115    1.084   .     S
C83    C84     1.415   .     A
C83    C87     1.503   1_554 S
C84    C85     1.414   .     A
C84    N112    1.444   .     S
C85    C86     1.399   .     A
C85    C88     1.506   .     S
C86    H116    1.084   .     S
C87    H117    1.110   .     S
C87    H118    1.110   .     S
C87    H119    1.109   .     S
C87    C83     1.503   1_556 S
C88    H120    1.108   .     S
C88    H121    1.110   .     S
C88    H122    1.110   .     S
C89    C90     1.406   .     A
C89    O124    1.373   .     S
C89    N112    1.370   1_556 A
C90    C91     1.409   .     A
C90    C94     1.405   .     A
C91    C97     1.414   .     A
C91    C92     1.407   1_556 A
C92    C93     1.405   .     A
C92    C100    1.406   .     A
C92    C91     1.407   1_554 A
C93    N112    1.373   .     A
C93    O123    1.373   .     S
C94    C95     1.398   .     A
C94    H125    1.083   .     S
C95    C96     1.405   .     A
C95    H127    1.083   .     S
C96    C97     1.407   .     A
C96    C101    1.406   .     A
C97    C98     1.408   .     A
C98    C102    1.405   .     A
C98    C99     1.405   1_556 A
C99    C100    1.397   .     A
C99    H131    1.083   .     S
C99    C98     1.405   1_554 A
C100   H126    1.083   .     S
C101   N113    1.372   .     A
C101   O134    1.373   .     S
C102   N113    1.371   .     A
C102   O133    1.373   .     S
C103   C108    1.419   .     A
C103   C109    1.419   .     A
C103   N113    1.445   .     S
C104   C109    1.507   .     S
C104   H128    1.111   .     S
C104   H129    1.109   .     S
C104   H135    1.111   .     S
C105   C109    1.404   .     A
C105   C110    1.398   .     A
C105   H130    1.085   .     S
C106   H111    1.108   .     S
C106   H114    1.110   .     S
C106   H132    1.111   .     S
C106   C108    1.508   1_554 S
C107   C108    1.401   .     A
C107   C110    1.394   .     A
C108   C106    1.508   1_556 S
N112   C89     1.370   1_554 A
H136   C163    1.084   .     S
C137   C138    1.402   .     A
C137   C142    1.403   .     A
C138   C139    1.397   .     A
C138   H171    1.084   .     S
C139   C140    1.410   .     A
C139   C143    1.506   .     S
C140   C141    1.415   .     A
C140   N168    1.440   .     S
C141   C142    1.411   .     A
C141   C144    1.504   .     S
C142   H172    1.084   .     S
C143   H173    1.110   .     S
C143   H174    1.109   .     S
C143   H175    1.109   .     S
C144   H176    1.110   .     S
C144   H177    1.110   .     S
C144   H178    1.110   .     S
C145   C146    1.405   .     A
C145   N168    1.373   .     A
C145   O180    1.373   .     S
C146   C147    1.409   .     A
C146   C150    1.407   .     A
C147   C148    1.410   .     A
C147   C153    1.413   .     A
C148   C149    1.404   .     A
C148   C156    1.405   .     A
C149   N168    1.370   .     A
C149   O179    1.374   .     S
C150   C151    1.397   .     A
C150   H181    1.083   .     S
C151   C152    1.405   .     A
C151   H183    1.084   .     S
C152   C153    1.411   .     A
C152   C157    1.404   .     A
C153   C154    1.409   .     A
C154   C155    1.406   .     A
C154   C158    1.403   .     A
C155   C156    1.396   .     A
C155   H187    1.083   .     S
C156   H182    1.083   .     S
C157   N169    1.370   .     A
C157   O190    1.375   .     S
C158   N169    1.373   .     A
C158   O189    1.373   .     S
C159   C164    1.411   .     A
C159   C165    1.416   .     A
C159   N169    1.438   1_565 S
C160   C165    1.505   .     S
C160   H184    1.109   .     S
C160   H185    1.108   .     S
C160   H191    1.109   .     S
C161   C165    1.405   .     A
C161   C166    1.403   .     A
C161   H186    1.085   .     S
C162   H167    1.109   .     S
C162   H170    1.109   .     S
C162   H188    1.109   .     S
C162   C164    1.506   1_545 S
C163   C164    1.398   .     A
C163   C166    1.403   .     A
C164   C162    1.506   1_565 S
N169   C159    1.438   1_545 S
H192   C219    1.084   .     S
C193   C194    1.403   .     A
C193   C198    1.402   .     A
C194   C195    1.407   .     A
C194   H227    1.084   .     S
C195   C196    1.412   .     A
C195   C199    1.502   .     S
C196   C197    1.412   .     A
C196   N224    1.443   .     S
C197   C198    1.400   .     A
C197   C200    1.507   .     S
C198   H228    1.084   .     S
C199   H229    1.110   .     S
C199   H230    1.110   .     S
C199   H231    1.110   .     S
C200   H232    1.110   .     S
C200   H233    1.111   .     S
C200   H234    1.111   .     S
C201   C202    1.407   .     A
C201   N224    1.370   .     A
C201   O236    1.373   .     S
C202   C203    1.409   .     A
C202   C206    1.405   .     A
C203   C204    1.408   .     A
C203   C209    1.414   .     A
C204   C205    1.406   .     A
C204   C212    1.406   .     A
C205   N224    1.371   .     A
C205   O235    1.373   .     S
C206   C207    1.398   .     A
C206   H237    1.083   .     S
C207   C208    1.406   .     A
C207   H239    1.083   .     S
C208   C209    1.409   .     A
C208   C213    1.406   .     A
C209   C210    1.409   .     A
C210   C211    1.405   .     A
C210   C214    1.406   .     A
C211   C212    1.397   .     A
C211   H243    1.083   .     S
C212   H238    1.083   .     S
C213   N225    1.371   .     A
C213   O246    1.373   .     S
C214   N225    1.371   .     A
C214   O245    1.373   .     S
C215   C220    1.412   .     A
C215   C221    1.417   .     A
C215   N225    1.442   .     S
C216   C221    1.504   .     S
C216   H240    1.110   .     S
C216   H241    1.108   .     S
C216   H247    1.110   .     S
C217   C221    1.409   .     A
C217   C222    1.401   .     A
C217   H242    1.084   .     S
C218   C220    1.508   .     S
C218   H223    1.110   .     S
C218   H226    1.110   .     S
C218   H244    1.110   .     S
C219   C220    1.398   .     A
C219   C222    1.402   .     A
H248   C275    1.084   .     S
C249   C250    1.406   .     A
C249   C254    1.404   .     A
C250   C251    1.407   .     A
C250   H283    1.084   .     S
C251   C252    1.411   .     A
C251   C255    1.503   .     S
C252   C253    1.412   .     A
C252   N280    1.443   .     S
C253   C254    1.401   .     A
C253   C256    1.506   .     S
C254   H284    1.084   .     S
C255   H285    1.110   .     S
C255   H286    1.110   .     S
C255   H287    1.110   .     S
C256   H288    1.109   .     S
C256   H289    1.111   .     S
C256   H290    1.111   .     S
C257   C258    1.405   .     A
C257   N280    1.369   .     A
C257   O292    1.373   .     S
C258   C259    1.409   .     A
C258   C262    1.405   1_545 A
C259   C260    1.408   .     A
C259   C265    1.414   .     A
C260   C261    1.407   .     A
C260   C268    1.406   .     A
C261   N280    1.372   .     A
C261   O291    1.373   .     S
C262   C263    1.397   .     A
C262   H293    1.083   .     S
C262   C258    1.405   1_565 A
C263   C264    1.405   .     A
C263   H295    1.083   .     S
C264   C269    1.404   .     A
C264   C265    1.408   1_565 A
C265   C266    1.409   .     A
C265   C264    1.408   1_545 A
C266   C267    1.405   .     A
C266   C270    1.406   .     A
C267   C268    1.398   .     A
C267   H299    1.083   .     S
C268   H294    1.083   .     S
C269   N281    1.371   .     A
C269   O302    1.373   .     S
C270   O301    1.373   .     S
C270   N281    1.370   1_545 A
C271   C276    1.415   .     A
C271   C277    1.415   .     A
C271   N281    1.441   .     S
C272   C277    1.506   .     S
C272   H297    1.109   .     S
C272   H303    1.110   .     S
C272   H296    1.110   1_565 S
C273   C277    1.401   .     A
C273   H298    1.084   .     S
C273   C278    1.401   1_556 A
C274   C276    1.508   .     S
C274   H279    1.110   .     S
C274   H282    1.111   .     S
C274   H300    1.111   .     S
C275   C278    1.401   .     A
C275   C276    1.403   1_554 A
C276   C275    1.403   1_556 A
C278   C273    1.401   1_554 A
N281   C270    1.370   1_565 A
H296   C272    1.110   1_545 S
H304   C331    1.084   .     S
C305   C306    1.403   .     A
C305   C310    1.402   .     A
C306   C307    1.399   .     A
C306   H339    1.085   .     S
C307   C308    1.411   .     A
C307   C311    1.506   .     S
C308   C309    1.412   .     A
C308   N336    1.440   .     S
C309   C310    1.407   .     A
C309   C312    1.505   1_545 S
C310   H340    1.083   .     S
C311   H341    1.110   .     S
C311   H342    1.110   .     S
C311   H343    1.109   .     S
C312   H344    1.109   .     S
C312   H345    1.110   .     S
C312   H346    1.109   .     S
C312   C309    1.505   1_565 S
C313   C314    1.405   .     A
C313   N336    1.370   .     A
C313   O348    1.373   .     S
C314   C318    1.406   .     A
C314   C315    1.409   1_545 A
C315   C316    1.409   .     A
C315   C321    1.413   .     A
C315   C314    1.409   1_565 A
C316   C317    1.405   .     A
C316   C324    1.405   .     A
C317   O347    1.373   .     S
C317   N336    1.368   1_565 A
C318   C319    1.397   .     A
C318   H349    1.083   .     S
C319   C320    1.405   .     A
C319   H351    1.083   .     S
C320   C321    1.409   1_545 A
C320   C325    1.404   1_545 A
C321   C322    1.409   .     A
C321   C320    1.409   1_565 A
C322   C323    1.406   .     A
C322   C326    1.405   .     A
C323   C324    1.397   .     A
C323   H355    1.083   .     S
C324   H350    1.083   .     S
C325   N337    1.370   .     A
C325   O358    1.374   .     S
C325   C320    1.404   1_565 A
C326   N337    1.371   .     A
C326   O357    1.373   .     S
C327   C332    1.413   .     A
C327   C333    1.416   .     A
C327   N337    1.440   .     S
C328   H352    1.111   .     S
C328   H353    1.109   .     S
C328   H359    1.110   .     S
C328   C333    1.507   1_545 S
C329   C333    1.402   .     A
C329   C334    1.400   .     A
C329   H354    1.084   .     S
C330   C332    1.505   .     S
C330   H335    1.110   .     S
C330   H338    1.111   .     S
C330   H356    1.112   .     S
C331   C332    1.403   .     A
C331   C334    1.400   .     A
C333   C328    1.507   1_565 S
N336   C317    1.368   1_545 A
H360   C387    1.083   .     S
C361   C362    1.402   .     A
C361   C366    1.400   .     A
C362   C363    1.405   .     A
C362   H395    1.084   .     S
C363   C364    1.413   .     A
C363   C367    1.506   .     S
C364   C365    1.413   .     A
C364   N392    1.444   .     S
C365   C366    1.406   .     A
C365   C368    1.505   .     S
C366   H396    1.084   .     S
C367   H397    1.110   .     S
C367   H398    1.111   .     S
C367   H399    1.110   .     S
C368   H400    1.110   .     S
C368   H401    1.111   .     S
C368   H402    1.111   .     S
C369   C370    1.404   .     A
C369   N392    1.371   .     A
C369   O404    1.373   .     S
C370   C371    1.407   .     A
C370   C374    1.405   .     A
C371   C372    1.409   .     A
C371   C377    1.415   .     A
C372   C373    1.409   .     A
C372   C380    1.406   .     A
C373   N392    1.371   .     A
C373   O403    1.372   .     S
C374   C375    1.396   .     A
C374   H405    1.083   .     S
C375   C376    1.404   .     A
C375   H407    1.083   .     S
C376   C377    1.410   .     A
C376   C381    1.406   .     A
C377   C378    1.407   .     A
C378   C379    1.406   .     A
C378   C382    1.407   .     A
C379   C380    1.399   .     A
C379   H411    1.083   .     S
C380   H406    1.083   .     S
C381   N393    1.367   .     A
C381   O414    1.374   .     S
C382   N393    1.372   .     A
C382   O413    1.372   .     S
C383   C388    1.414   .     A
C383   C389    1.413   .     A
C383   N393    1.442   .     S
C384   C389    1.507   .     S
C384   H408    1.111   .     S
C384   H409    1.108   .     S
C384   H415    1.111   .     S
C385   C389    1.398   .     A
C385   C390    1.401   .     A
C385   H410    1.084   .     S
C386   C388    1.503   .     S
C386   H391    1.110   .     S
C386   H394    1.111   .     S
C386   H412    1.111   .     S
C387   C388    1.407   .     A
C387   C390    1.401   .     A
H416   C443    1.084   .     S
C417   C418    1.400   .     A
C417   C422    1.399   .     A
C418   C419    1.405   .     A
C418   H451    1.084   .     S
C419   C420    1.414   1_556 A
C419   C423    1.505   1_556 S
C420   N448    1.443   .     S
C420   C419    1.414   1_554 A
C420   C421    1.413   1_554 A
C421   C422    1.402   .     A
C421   C420    1.413   1_556 A
C421   C424    1.505   1_556 S
C422   H452    1.084   .     S
C423   H454    1.110   .     S
C423   H455    1.109   .     S
C423   C419    1.505   1_554 S
C423   H453    1.110   1_554 S
C424   H456    1.109   .     S
C424   H458    1.110   .     S
C424   C421    1.505   1_554 S
C424   H457    1.110   1_554 S
C425   C426    1.404   .     A
C425   N448    1.371   .     A
C425   O460    1.374   .     S
C426   C427    1.408   .     A
C426   C430    1.405   .     A
C427   C428    1.409   .     A
C427   C433    1.415   .     A
C428   C429    1.408   .     A
C428   C436    1.406   .     A
C429   N448    1.371   .     A
C429   O459    1.372   .     S
C430   C431    1.397   .     A
C430   H461    1.083   .     S
C431   C432    1.405   .     A
C431   H463    1.083   .     S
C432   C433    1.409   .     A
C432   C437    1.406   .     A
C433   C434    1.408   .     A
C434   C435    1.407   .     A
C434   C438    1.408   .     A
C435   C436    1.399   .     A
C435   H467    1.083   .     S
C436   H462    1.083   .     S
C437   N449    1.371   .     A
C437   O470    1.374   .     S
C438   N449    1.373   .     A
C438   O469    1.372   .     S
C439   C444    1.416   .     A
C439   C445    1.418   .     A
C439   N449    1.446   .     S
C440   C445    1.506   .     S
C440   H464    1.110   .     S
C440   H465    1.108   .     S
C440   H471    1.110   .     S
C441   C445    1.403   .     A
C441   C446    1.399   .     A
C441   H466    1.085   .     S
C442   C444    1.506   .     S
C442   H447    1.108   .     S
C442   H450    1.110   .     S
C442   H468    1.110   .     S
C443   C444    1.405   .     A
C443   C446    1.399   .     A
H453   C423    1.110   1_556 S
H457   C424    1.110   1_556 S
H472   C499    1.082   .     S
C473   C474    1.403   .     A
C473   C478    1.404   .     A
C474   C475    1.408   .     A
C474   H507    1.084   .     S
C475   C476    1.413   .     A
C475   C479    1.504   .     S
C476   C477    1.409   .     A
C476   N504    1.439   .     S
C477   C478    1.397   .     A
C477   C480    1.507   .     S
C478   H508    1.084   .     S
C479   H509    1.110   .     S
C479   H510    1.110   .     S
C479   H511    1.110   .     S
C480   H512    1.110   .     S
C480   H513    1.110   .     S
C480   H514    1.110   .     S
C481   C482    1.403   .     A
C481   N504    1.368   .     A
C481   O516    1.374   .     S
C482   C483    1.409   .     A
C482   C486    1.404   .     A
C483   C484    1.408   .     A
C483   C489    1.413   .     A
C484   C485    1.406   .     A
C484   C492    1.406   .     A
C485   N504    1.370   .     A
C485   O515    1.372   .     S
C486   C487    1.395   .     A
C486   H517    1.083   .     S
C487   C488    1.405   .     A
C487   H519    1.083   .     S
C488   C489    1.408   .     A
C488   C493    1.402   .     A
C489   C490    1.410   .     A
C490   C491    1.405   .     A
C490   C494    1.407   .     A
C491   C492    1.398   .     A
C491   H523    1.083   .     S
C492   H518    1.083   .     S
C493   N505    1.370   .     A
C493   O526    1.373   .     S
C494   N505    1.368   .     A
C494   O525    1.373   .     S
C495   C501    1.411   .     A
C495   N505    1.439   .     S
C495   C500    1.413   1_455 A
C496   C501    1.506   .     S
C496   H520    1.111   .     S
C496   H521    1.108   .     S
C496   H527    1.111   .     S
C497   C502    1.404   .     A
C497   H522    1.083   .     S
C497   C501    1.397   1_655 A
C498   C500    1.503   .     S
C498   H503    1.110   .     S
C498   H524    1.111   .     S
C498   H506    1.110   1_655 S
C499   C500    1.404   .     A
C499   C502    1.400   .     A
C500   C495    1.413   1_655 A
C501   C497    1.397   1_455 A
H506   C498    1.110   1_455 S
H528   C555    1.084   .     S
C529   C530    1.402   .     A
C529   C534    1.401   .     A
C530   C531    1.402   .     A
C530   H563    1.084   .     S
C531   C535    1.505   .     S
C531   C532    1.411   1_545 A
C532   C533    1.412   .     A
C532   N560    1.440   .     S
C532   C531    1.411   1_565 A
C533   C536    1.505   .     S
C533   C534    1.402   1_565 A
C534   H564    1.084   .     S
C534   C533    1.402   1_545 A
C535   H565    1.111   1_655 S
C535   H566    1.110   1_545 S
C535   H567    1.110   1_655 S
C536   H568    1.110   .     S
C536   H569    1.110   .     S
C536   H570    1.110   .     S
C537   C538    1.401   .     A
C537   N560    1.370   .     A
C537   O572    1.374   .     S
C538   C542    1.405   .     A
C538   C539    1.408   1_655 A
C539   C540    1.409   .     A
C539   C545    1.413   .     A
C539   C538    1.408   1_455 A
C540   C541    1.408   .     A
C540   C548    1.406   .     A
C541   O571    1.372   .     S
C541   N560    1.370   1_455 A
C542   C543    1.394   .     A
C542   H573    1.083   .     S
C543   C544    1.404   .     A
C543   H575    1.083   .     S
C544   C545    1.408   1_655 A
C544   C549    1.401   1_655 A
C545   C546    1.409   .     A
C545   C544    1.408   1_455 A
C546   C547    1.406   .     A
C546   C550    1.407   .     A
C547   C548    1.399   .     A
C547   H579    1.083   .     S
C548   H574    1.084   .     S
C549   N561    1.369   .     A
C549   C544    1.401   1_455 A
C549   O582    1.374   1_455 S
C550   N561    1.370   .     A
C550   O581    1.372   .     S
C551   C556    1.415   .     A
C551   C557    1.413   .     A
C551   N561    1.439   .     S
C552   C557    1.507   .     S
C552   H576    1.110   .     S
C552   H577    1.108   .     S
C552   H583    1.110   .     S
C553   C557    1.397   .     A
C553   C558    1.399   .     A
C553   H578    1.084   .     S
C554   C556    1.505   .     S
C554   H559    1.109   .     S
C554   H562    1.110   .     S
C554   H580    1.110   .     S
C555   C556    1.405   .     A
C555   C558    1.399   .     A
N560   C541    1.370   1_655 A
H565   C535    1.111   1_455 S
H566   C535    1.110   1_565 S
H567   C535    1.110   1_455 S
O582   C549    1.374   1_655 S
H584   C611    1.084   .     S
C585   C586    1.402   .     A
C585   C590    1.400   .     A
C586   C587    1.402   .     A
C586   H619    1.082   .     S
C587   C588    1.411   .     A
C587   C591    1.505   .     S
C588   C589    1.413   .     A
C588   N616    1.440   .     S
C589   C590    1.404   .     A
C589   C592    1.505   .     S
C590   H620    1.084   .     S
C591   H621    1.111   .     S
C591   H622    1.111   .     S
C591   H623    1.109   .     S
C592   H625    1.111   .     S
C592   H626    1.111   .     S
C592   H624    1.110   1_455 S
C593   C594    1.411   .     A
C593   O628    1.372   .     S
C593   N616    1.370   1_655 A
C594   C595    1.410   .     A
C594   C598    1.406   .     A
C595   C601    1.414   .     A
C595   C596    1.407   1_655 A
C596   C597    1.399   .     A
C596   C604    1.403   .     A
C596   C595    1.407   1_455 A
C597   N616    1.370   .     A
C597   O627    1.374   .     S
C598   C599    1.401   .     A
C598   H629    1.082   .     S
C599   C600    1.407   .     A
C599   H631    1.084   .     S
C600   C601    1.408   .     A
C600   C605    1.409   .     A
C601   C602    1.409   .     A
C602   C606    1.402   .     A
C602   C603    1.404   1_655 A
C603   C604    1.393   .     A
C603   H635    1.083   .     S
C603   C602    1.404   1_455 A
C604   H630    1.082   .     S
C605   N617    1.371   .     A
C605   O638    1.372   .     S
C606   N617    1.369   .     A
C606   O637    1.373   .     S
C607   C612    1.411   .     A
C607   C613    1.416   .     A
C607   N617    1.441   .     S
C608   C613    1.504   .     S
C608   H632    1.110   .     S
C608   H633    1.109   .     S
C608   H639    1.110   .     S
C609   C613    1.405   .     A
C609   C614    1.400   .     A
C609   H634    1.084   .     S
C610   C612    1.506   .     S
C610   H615    1.110   .     S
C610   H618    1.110   .     S
C610   H636    1.111   .     S
C611   C612    1.399   .     A
C611   C614    1.400   .     A
N616   C593    1.370   1_455 A
H624   C592    1.110   1_655 S
H640   C667    1.084   .     S
C641   C642    1.406   .     A
C641   C646    1.405   .     A
C642   C643    1.401   .     A
C642   H675    1.083   .     S
C643   C644    1.409   .     A
C643   C647    1.506   1_554 S
C644   C645    1.409   .     A
C644   N672    1.438   .     S
C645   C646    1.403   .     A
C645   C648    1.505   .     S
C646   H676    1.083   .     S
C647   H677    1.109   .     S
C647   H678    1.109   .     S
C647   H679    1.110   .     S
C647   C643    1.506   1_556 S
C648   H680    1.110   .     S
C648   H681    1.110   .     S
C648   H682    1.110   .     S
C649   C650    1.403   .     A
C649   N672    1.370   .     A
C649   O684    1.373   .     S
C650   C651    1.408   .     A
C650   C654    1.405   .     A
C651   C652    1.410   1_554 S
C651   C657    1.412   1_554 D
C652   C660    1.404   .     A
C652   C651    1.410   1_556 S
C652   C653    1.404   1_556 A
C653   N672    1.368   .     A
C653   C652    1.404   1_554 A
C653   O683    1.373   1_554 S
C654   C655    1.396   .     A
C654   H685    1.083   .     S
C655   C656    1.405   .     A
C655   H687    1.083   .     S
C656   C657    1.409   1_554 A
C656   C661    1.404   1_554 A
C657   C658    1.408   .     A
C657   C651    1.412   1_556 D
C657   C656    1.409   1_556 A
C658   C659    1.405   .     A
C658   C662    1.403   .     A
C659   C660    1.396   .     A
C659   H691    1.083   .     S
C660   H686    1.083   .     S
C661   N673    1.369   .     A
C661   C656    1.404   1_556 A
C661   O694    1.373   1_556 S
C662   N673    1.370   .     A
C662   O693    1.373   .     S
C663   C668    1.413   .     A
C663   C669    1.416   .     A
C663   N673    1.438   .     S
C664   C669    1.507   .     S
C664   H688    1.110   .     S
C664   H689    1.107   .     S
C664   H695    1.110   .     S
C665   C670    1.396   .     A
C665   H690    1.085   .     S
C665   C669    1.399   1_455 A
C666   H674    1.110   .     S
C666   H692    1.111   .     S
C666   C668    1.504   1_554 S
C666   H671    1.110   1_554 S
C667   C670    1.396   .     A
C667   C668    1.402   1_455 A
C668   C666    1.504   1_556 S
C668   C667    1.402   1_655 A
C669   C665    1.399   1_655 A
H671   C666    1.110   1_556 S
O683   C653    1.373   1_556 S
O694   C661    1.373   1_554 S
H696   C723    1.084   .     S
C697   C698    1.403   .     A
C697   C702    1.402   .     A
C698   C699    1.399   .     A
C698   H731    1.083   .     S
C699   C700    1.410   .     A
C699   C703    1.507   .     S
C700   C701    1.414   .     A
C700   N728    1.443   .     S
C701   C702    1.410   .     A
C701   C704    1.502   .     S
C702   H732    1.083   .     S
C703   H733    1.111   .     S
C703   H734    1.110   .     S
C703   H735    1.110   .     S
C704   H736    1.109   .     S
C704   H737    1.110   .     S
C704   H738    1.111   .     S
C705   C706    1.407   .     A
C705   N728    1.371   .     A
C705   O740    1.373   .     S
C706   C707    1.408   .     A
C706   C710    1.407   .     A
C707   C708    1.409   .     A
C707   C713    1.415   .     A
C708   C709    1.406   .     A
C708   C716    1.405   .     A
C709   N728    1.370   .     A
C709   O739    1.373   .     S
C710   C711    1.399   .     A
C710   H741    1.083   .     S
C711   C712    1.405   .     A
C711   H743    1.083   .     S
C712   C713    1.410   .     A
C712   C717    1.408   .     A
C713   C714    1.408   .     A
C714   C715    1.405   .     A
C714   C718    1.403   .     A
C715   C716    1.396   .     A
C715   H747    1.083   .     S
C716   H742    1.083   .     S
C717   N729    1.370   .     A
C717   O750    1.373   .     S
C718   N729    1.371   .     A
C718   O749    1.374   .     S
C719   C724    1.412   .     A
C719   C725    1.416   .     A
C719   N729    1.441   .     S
C720   C725    1.506   .     S
C720   H744    1.110   .     S
C720   H745    1.108   .     S
C720   H751    1.111   .     S
C721   C725    1.403   .     A
C721   C726    1.401   .     A
C721   H746    1.084   .     S
C722   C724    1.505   .     S
C722   H727    1.109   .     S
C722   H730    1.110   .     S
C722   H748    1.110   .     S
C723   C724    1.401   .     A
C723   C726    1.400   .     A
