data_lcy+N205+E1
_audit_creation_date              2025-01-21
_audit_creation_method            'Materials Studio'
_symmetry_space_group_name_H-M    'P1'
_symmetry_Int_Tables_number       1
_symmetry_cell_setting            triclinic
loop_
_symmetry_equiv_pos_as_xyz
  x,y,z
_cell_length_a                    34.6550
_cell_length_b                    33.5216
_cell_length_c                    34.0985
_cell_angle_alpha                 111.0437
_cell_angle_beta                  92.0097
_cell_angle_gamma                 92.5936
loop_
_atom_site_label
_atom_site_type_symbol
_atom_site_fract_x
_atom_site_fract_y
_atom_site_fract_z
_atom_site_U_iso_or_equiv
_atom_site_adp_type
_atom_site_occupancy
Y0     Y     0.15160   0.60148   0.89934   0.00000  Uiso   1.00
Y1     Y     0.09434   0.68704   0.85325   0.00000  Uiso   1.00
C2     C     0.03691   0.69125   0.90583   0.00000  Uiso   1.00
C3     C     0.08175   0.59178   0.84096   0.00000  Uiso   1.00
C4     C     0.16467   0.57353   0.96314   0.00000  Uiso   1.00
C5     C     0.19100   0.56856   0.82885   0.00000  Uiso   1.00
C6     C     0.17040   0.69242   0.90716   0.00000  Uiso   1.00
C7     C     0.08573   0.73774   0.80787   0.00000  Uiso   1.00
O8     O     0.07120   0.70592   0.91863   0.00000  Uiso   1.00
O9     O     0.03267   0.67551   0.86633   0.00000  Uiso   1.00
O10    O     0.09018   0.60599   0.88024   0.00000  Uiso   1.00
O11    O     0.08870   0.61554   0.81968   0.00000  Uiso   1.00
O12    O     0.18402   0.60427   0.95861   0.00000  Uiso   1.00
O13    O     0.13835   0.55711   0.93443   0.00000  Uiso   1.00
O14    O     0.16023   0.55118   0.83577   0.00000  Uiso   1.00
O15    O     0.20221   0.60234   0.85922   0.00000  Uiso   1.00
O16    O     0.15730   0.70057   0.87583   0.00000  Uiso   1.00
O17    O     0.14848   0.67226   0.92347   0.00000  Uiso   1.00
O18    O     0.08629   0.69750   0.79153   0.00000  Uiso   1.00
O19    O     0.08915   0.75138   0.84748   0.00000  Uiso   1.00
Y20    Y     0.57930   0.84345   0.16624   0.00000  Uiso   1.00
Y21    Y     0.64103   0.88485   0.07772   0.00000  Uiso   1.00
C22    C     0.69295   0.82575   0.07222   0.00000  Uiso   1.00
C23    C     0.64659   0.90682   0.17382   0.00000  Uiso   1.00
C24    C     0.56840   0.78254   0.19973   0.00000  Uiso   1.00
C25    C     0.53501   0.91138   0.19350   0.00000  Uiso   1.00
C26    C     0.56176   0.83370   0.07579   0.00000  Uiso   1.00
C27    C     0.65683   0.92912   0.02699   0.00000  Uiso   1.00
O28    O     0.66090   0.81714   0.05134   0.00000  Uiso   1.00
O29    O     0.69729   0.86423   0.09652   0.00000  Uiso   1.00
O30    O     0.63991   0.86660   0.16224   0.00000  Uiso   1.00
O31    O     0.64371   0.92466   0.14669   0.00000  Uiso   1.00
O32    O     0.54732   0.78502   0.16984   0.00000  Uiso   1.00
O33    O     0.59569   0.81122   0.21183   0.00000  Uiso   1.00
O34    O     0.56524   0.90776   0.21337   0.00000  Uiso   1.00
O35    O     0.52717   0.87927   0.16035   0.00000  Uiso   1.00
O36    O     0.57733   0.86553   0.06895   0.00000  Uiso   1.00
O37    O     0.58076   0.81525   0.09609   0.00000  Uiso   1.00
O38    O     0.66375   0.94404   0.06628   0.00000  Uiso   1.00
O39    O     0.64146   0.89162   0.01424   0.00000  Uiso   1.00
Y40    Y     0.90229   0.15396   0.56042   0.00000  Uiso   1.00
Y41    Y     0.87311   0.07765   0.66173   0.00000  Uiso   1.00
C42    C     0.93047   0.02282   0.64954   0.00000  Uiso   1.00
C43    C     0.85469   0.07686   0.56922   0.00000  Uiso   1.00
C44    C     0.97237   0.16813   0.53500   0.00000  Uiso   1.00
C45    C     0.84054   0.19020   0.54103   0.00000  Uiso   1.00
C46    C     0.89943   0.16885   0.66190   0.00000  Uiso   1.00
C47    C     0.82689   0.06873   0.72105   0.00000  Uiso   1.00
O48    O     0.93596   0.06283   0.66744   0.00000  Uiso   1.00
O49    O     0.89590   0.01177   0.63619   0.00000  Uiso   1.00
O50    O     0.88888   0.09389   0.57378   0.00000  Uiso   1.00
O51    O     0.84128   0.06662   0.59889   0.00000  Uiso   1.00
O52    O     0.95799   0.19319   0.56756   0.00000  Uiso   1.00
O53    O     0.95068   0.13476   0.51551   0.00000  Uiso   1.00
O54    O     0.86307   0.20804   0.57308   0.00000  Uiso   1.00
O55    O     0.85054   0.15365   0.51794   0.00000  Uiso   1.00
O56    O     0.89011   0.14913   0.68610   0.00000  Uiso   1.00
O57    O     0.89918   0.14629   0.62305   0.00000  Uiso   1.00
O58    O     0.81868   0.05191   0.68208   0.00000  Uiso   1.00
O59    O     0.85847   0.09085   0.72917   0.00000  Uiso   1.00
Y60    Y     0.40894   0.34922   0.43114   0.00000  Uiso   1.00
Y61    Y     0.36351   0.41211   0.33157   0.00000  Uiso   1.00
C62    C     0.42906   0.46147   0.33818   0.00000  Uiso   1.00
C63    C     0.35996   0.42132   0.42723   0.00000  Uiso   1.00
C64    C     0.47917   0.33899   0.46121   0.00000  Uiso   1.00
C65    C     0.34637   0.31051   0.44959   0.00000  Uiso   1.00
C66    C     0.38837   0.32472   0.33261   0.00000  Uiso   1.00
C67    C     0.31081   0.42695   0.27873   0.00000  Uiso   1.00
O68    O     0.40259   0.47128   0.36359   0.00000  Uiso   1.00
O69    O     0.42309   0.42436   0.31089   0.00000  Uiso   1.00
O70    O     0.39468   0.41051   0.42305   0.00000  Uiso   1.00
O71    O     0.34014   0.42282   0.39559   0.00000  Uiso   1.00
O72    O     0.46395   0.31561   0.42591   0.00000  Uiso   1.00
O73    O     0.45868   0.36950   0.48089   0.00000  Uiso   1.00
O74    O     0.36372   0.29479   0.41606   0.00000  Uiso   1.00
O75    O     0.36218   0.34569   0.47440   0.00000  Uiso   1.00
O76    O     0.36952   0.34080   0.31001   0.00000  Uiso   1.00
O77    O     0.40577   0.35086   0.36600   0.00000  Uiso   1.00
O78    O     0.31441   0.44843   0.31759   0.00000  Uiso   1.00
O79    O     0.33342   0.39709   0.26777   0.00000  Uiso   1.00
C80    C     0.44396   0.79144   0.02972   0.00000  Uiso   1.00
C81    C     0.46913   0.76330   0.03817   0.00000  Uiso   1.00
C82    C     0.50709   0.77731   0.05427   0.00000  Uiso   1.00
C83    C     0.52097   0.81948   0.06145   0.00000  Uiso   1.00
C84    C     0.49590   0.84767   0.05336   0.00000  Uiso   1.00
C85    C     0.45780   0.83394   0.03799   0.00000  Uiso   1.00
C86    C     0.40376   0.77638   0.01163   0.00000  Uiso   1.00
C87    C     0.38671   0.79165   0.98209   0.00000  Uiso   1.00
C88    C     0.34920   0.77720   0.96474   0.00000  Uiso   1.00
C89    C     0.32777   0.74674   0.97608   0.00000  Uiso   1.00
C90    C     0.34479   0.73162   0.00576   0.00000  Uiso   1.00
C91    C     0.38217   0.74636   0.02340   0.00000  Uiso   1.00
C92    C     0.28771   0.73131   0.95756   0.00000  Uiso   1.00
C93    C     0.25918   0.72209   0.98195   0.00000  Uiso   1.00
C94    C     0.22143   0.70866   0.96511   0.00000  Uiso   1.00
C95    C     0.21100   0.70463   0.92364   0.00000  Uiso   1.00
C96    C     0.23940   0.71324   0.89889   0.00000  Uiso   1.00
C97    C     0.27739   0.72621   0.91559   0.00000  Uiso   1.00
H98    H     0.45984   0.73013   0.03138   0.00000  Uiso   1.00
H99    H     0.52591   0.75478   0.05996   0.00000  Uiso   1.00
H100   H     0.50576   0.88048   0.05908   0.00000  Uiso   1.00
H101   H     0.43915   0.85681   1.03282   0.00000  Uiso   1.00
H102   H     0.40250   0.81449   0.97193   0.00000  Uiso   1.00
H103   H     0.33689   0.79028   0.94267   0.00000  Uiso   1.00
H104   H     0.32943   0.70795   0.01512   0.00000  Uiso   1.00
H105   H     0.39402   0.73446   0.04659   0.00000  Uiso   1.00
H106   H     0.26568   0.72613   0.01448   0.00000  Uiso   1.00
H107   H     0.20006   0.70241   0.98496   0.00000  Uiso   1.00
H108   H     0.23231   0.70958   0.86652   0.00000  Uiso   1.00
H109   H     0.29874   0.73193   0.89547   0.00000  Uiso   1.00
C110   C     0.40469   0.18915   0.28586   0.00000  Uiso   1.00
C111   C     0.38345   0.20735   0.26134   0.00000  Uiso   1.00
C112   C     0.37626   0.25099   0.27747   0.00000  Uiso   1.00
C113   C     0.39052   0.27739   0.31821   0.00000  Uiso   1.00
C114   C     0.41039   0.25844   0.34264   0.00000  Uiso   1.00
C115   C     0.41743   0.21512   0.32698   0.00000  Uiso   1.00
C116   C     0.41615   0.14425   0.26845   0.00000  Uiso   1.00
C117   C     0.41579   0.11898   0.29361   0.00000  Uiso   1.00
C118   C     0.43250   0.07950   0.28031   0.00000  Uiso   1.00
C119   C     0.44944   0.06415   0.24131   0.00000  Uiso   1.00
C120   C     0.44768   0.08807   0.21491   0.00000  Uiso   1.00
C121   C     0.43137   0.12792   0.22847   0.00000  Uiso   1.00
C122   C     0.47059   0.02441   0.22930   0.00000  Uiso   1.00
C123   C     0.46431  -0.00738   0.18912   0.00000  Uiso   1.00
C124   C     0.48457   0.95534   0.17798   0.00000  Uiso   1.00
C125   C     0.51212   0.94964   0.20643   0.00000  Uiso   1.00
C126   C     0.51872   0.98162   0.24646   0.00000  Uiso   1.00
C127   C     0.49786   0.01849   0.25793   0.00000  Uiso   1.00
H128   H     0.37293   0.18804   0.22960   0.00000  Uiso   1.00
H129   H     0.36074   0.26436   0.25742   0.00000  Uiso   1.00
H130   H     0.42102   0.27711   0.37366   0.00000  Uiso   1.00
H131   H     0.43432   0.20237   0.34660   0.00000  Uiso   1.00
H132   H     0.40348   0.13037   0.32415   0.00000  Uiso   1.00
H133   H     0.43276   0.06123   0.30083   0.00000  Uiso   1.00
H134   H     0.46057   0.07688   0.18468   0.00000  Uiso   1.00
H135   H     0.43246   0.14689   0.20861   0.00000  Uiso   1.00
H136   H     0.44363  -0.00343   0.16643   0.00000  Uiso   1.00
H137   H     0.47924   0.93132   0.14677   0.00000  Uiso   1.00
H138   H     0.54013   0.97826   0.26880   0.00000  Uiso   1.00
H139   H     0.50368   0.04291   0.28887   0.00000  Uiso   1.00
C140   C     0.73508   0.24645   0.52656   0.00000  Uiso   1.00
C141   C     0.74090   0.20385   0.50105   0.00000  Uiso   1.00
C142   C     0.77588   0.18576   0.50427   0.00000  Uiso   1.00
C143   C     0.80550   0.20998   0.53320   0.00000  Uiso   1.00
C144   C     0.80025   0.25297   0.55748   0.00000  Uiso   1.00
C145   C     0.76544   0.27110   0.55410   0.00000  Uiso   1.00
C146   C     0.69687   0.26432   0.52577   0.00000  Uiso   1.00
C147   C     0.66301   0.23900   0.52405   0.00000  Uiso   1.00
C148   C     0.62682   0.25422   0.52050   0.00000  Uiso   1.00
C149   C     0.62372   0.29512   0.51871   0.00000  Uiso   1.00
C150   C     0.65734   0.32162   0.52304   0.00000  Uiso   1.00
C151   C     0.69374   0.30630   0.52648   0.00000  Uiso   1.00
C152   C     0.58618   0.30716   0.50608   0.00000  Uiso   1.00
C153   C     0.56608   0.27893   0.46963   0.00000  Uiso   1.00
C154   C     0.53166   0.28995   0.45527   0.00000  Uiso   1.00
C155   C     0.51618   0.32928   0.47731   0.00000  Uiso   1.00
C156   C     0.53581   0.35745   0.51431   0.00000  Uiso   1.00
C157   C     0.57095   0.34662   0.52841   0.00000  Uiso   1.00
H158   H     0.71816   0.18436   0.47900   0.00000  Uiso   1.00
H159   H     0.77924   0.15255   0.48523   0.00000  Uiso   1.00
H160   H     0.82279   0.27232   0.57993   0.00000  Uiso   1.00
H161   H     0.76176   0.30389   0.57419   0.00000  Uiso   1.00
H162   H     0.66455   0.20706   0.52473   0.00000  Uiso   1.00
H163   H     0.60117   0.23346   0.51769   0.00000  Uiso   1.00
H164   H     0.65551   0.35316   0.52139   0.00000  Uiso   1.00
H165   H     0.71938   0.32655   0.52783   0.00000  Uiso   1.00
H166   H     0.57747   0.24853   0.45173   0.00000  Uiso   1.00
H167   H     0.51706   0.26739   0.42682   0.00000  Uiso   1.00
H168   H     0.52415   0.38773   0.53202   0.00000  Uiso   1.00
H169   H     0.58605   0.36873   0.55675   0.00000  Uiso   1.00
C170   C     0.76147   0.04676   0.81704   0.00000  Uiso   1.00
C171   C     0.79132   0.07927   0.82762   0.00000  Uiso   1.00
C172   C     0.81189   0.08702   0.79632   0.00000  Uiso   1.00
C173   C     0.80292   0.06266   0.75369   0.00000  Uiso   1.00
C174   C     0.77212   1.03133   0.74284   0.00000  Uiso   1.00
C175   C     0.75160   1.02342   0.77421   0.00000  Uiso   1.00
C176   C     0.74250   1.03555   0.85053   0.00000  Uiso   1.00
C177   C     0.70292   1.02260   0.84656   0.00000  Uiso   1.00
C178   C     0.68610   1.00924   0.87687   0.00000  Uiso   1.00
C179   C     0.70840   1.00891   0.91200   0.00000  Uiso   1.00
C180   C     0.74764   0.02302   0.91655   0.00000  Uiso   1.00
C181   C     0.76451   0.03591   0.88611   0.00000  Uiso   1.00
C182   C     0.69175   0.99124   0.94237   0.00000  Uiso   1.00
C183   C     0.70186   1.01024   0.98571   0.00000  Uiso   1.00
C184   C     0.68935   0.99091   0.01360   0.00000  Uiso   1.00
C185   C     0.66677   0.95207  -0.00138   0.00000  Uiso   1.00
C186   C     0.65559   0.93386   0.95560   0.00000  Uiso   1.00
C187   C     0.66781   0.95330   0.92778   0.00000  Uiso   1.00
H188   H     0.79908   0.09849   0.86022   0.00000  Uiso   1.00
H189   H     0.83535   0.11158   0.80555   0.00000  Uiso   1.00
H190   H     0.76474   1.01201   0.71016   0.00000  Uiso   1.00
H191   H     0.72907   0.99785   0.76491   0.00000  Uiso   1.00
H192   H     0.68498   1.02257   0.81992   0.00000  Uiso   1.00
H193   H     0.65566   0.99902   0.87277   0.00000  Uiso   1.00
H194   H     0.76576   0.02251   0.94286   0.00000  Uiso   1.00
H195   H     0.79521   0.04478   0.88979   0.00000  Uiso   1.00
H196   H     0.71990   0.03975   0.99793   0.00000  Uiso   1.00
H197   H     0.69829   0.00570   0.04666   0.00000  Uiso   1.00
H198   H     0.63808   0.90401   0.94327   0.00000  Uiso   1.00
H199   H     0.65987   0.93761   0.89456   0.00000  Uiso   1.00
C200   C     0.78141   0.05188   0.45772   0.00000  Uiso   1.00
C201   C     0.76565   0.06424   0.49748   0.00000  Uiso   1.00
C202   C     0.78957   0.07347   0.53390   0.00000  Uiso   1.00
C203   C     0.82979   0.07119   0.53138   0.00000  Uiso   1.00
C204   C     0.84579   1.06031   0.49190   0.00000  Uiso   1.00
C205   C     0.82184   1.05078   0.45541   0.00000  Uiso   1.00
C206   C     0.75575   1.03722   0.41869   0.00000  Uiso   1.00
C207   C     0.72203   1.01104   0.41563   0.00000  Uiso   1.00
C208   C     0.69988   0.99349   0.37770   0.00000  Uiso   1.00
C209   C     0.71098   1.00157   0.34191   0.00000  Uiso   1.00
C210   C     0.74377   0.02911   0.34535   0.00000  Uiso   1.00
C211   C     0.76594   0.04672   0.38332   0.00000  Uiso   1.00
C212   C     0.69052   0.97857   0.30033   0.00000  Uiso   1.00
C213   C     0.68380   0.99938   0.27178   0.00000  Uiso   1.00
C214   C     0.66806   0.97642   0.23111   0.00000  Uiso   1.00
C215   C     0.65884   0.93218   0.21815   0.00000  Uiso   1.00
C216   C     0.66443   0.91166   0.24715   0.00000  Uiso   1.00
C217   C     0.68002   0.93461   0.28780   0.00000  Uiso   1.00
H218   H     0.73472   0.06622   0.50036   0.00000  Uiso   1.00
H219   H     0.77662   0.08204   0.56404   0.00000  Uiso   1.00
H220   H     0.87673   1.05796   0.48917   0.00000  Uiso   1.00
H221   H     0.83490   1.04098   0.42527   0.00000  Uiso   1.00
H222   H     0.71358   1.00264   0.44208   0.00000  Uiso   1.00
H223   H     0.67449   0.97278   0.37610   0.00000  Uiso   1.00
H224   H     0.75325   0.03558   0.31817   0.00000  Uiso   1.00
H225   H     0.79147   0.06715   0.38476   0.00000  Uiso   1.00
H226   H     0.69121   0.03332   0.28074   0.00000  Uiso   1.00
H227   H     0.66439   0.99301   0.20935   0.00000  Uiso   1.00
H228   H     0.65797   0.87752   0.23807   0.00000  Uiso   1.00
H229   H     0.68561   0.91748   0.30877   0.00000  Uiso   1.00
C230   C     0.31022   0.45809   0.54788   0.00000  Uiso   1.00
C231   C     0.35048   0.45756   0.54482   0.00000  Uiso   1.00
C232   C     0.36647   0.44445   0.50548   0.00000  Uiso   1.00
C233   C     0.34253   0.43152   0.46839   0.00000  Uiso   1.00
C234   C     0.30220   0.43175   0.47143   0.00000  Uiso   1.00
C235   C     0.28619   0.44480   0.51085   0.00000  Uiso   1.00
C236   C     0.29353   0.47411   0.58970   0.00000  Uiso   1.00
C237   C     0.30572   0.45927   0.62149   0.00000  Uiso   1.00
C238   C     0.29023   0.47488   0.66115   0.00000  Uiso   1.00
C239   C     0.26277   0.50595   0.66968   0.00000  Uiso   1.00
C240   C     0.25061   0.52088   0.63807   0.00000  Uiso   1.00
C241   C     0.26579   0.50500   0.59832   0.00000  Uiso   1.00
C242   C     0.24545   0.52148   0.71090   0.00000  Uiso   1.00
C243   C     0.26184   0.55774   0.74367   0.00000  Uiso   1.00
C244   C     0.24445   0.57295   0.78238   0.00000  Uiso   1.00
C245   C     0.21059   0.55187   0.78880   0.00000  Uiso   1.00
C246   C     0.19445   0.51546   0.75580   0.00000  Uiso   1.00
C247   C     0.21173   0.50044   0.71717   0.00000  Uiso   1.00
H248   H     0.36958   0.46856   0.57294   0.00000  Uiso   1.00
H249   H     0.39766   0.44563   0.50411   0.00000  Uiso   1.00
H250   H     0.28307   0.42224   0.44338   0.00000  Uiso   1.00
H251   H     0.25502   0.44461   0.51247   0.00000  Uiso   1.00
H252   H     0.32683   0.43519   0.61540   0.00000  Uiso   1.00
H253   H     0.29951   0.46263   0.68509   0.00000  Uiso   1.00
H254   H     0.22932   0.54476   0.64423   0.00000  Uiso   1.00
H255   H     0.25628   0.51727   0.57446   0.00000  Uiso   1.00
H256   H     0.28776   0.57445   0.73907   0.00000  Uiso   1.00
H257   H     0.25721   0.60142   0.80704   0.00000  Uiso   1.00
H258   H     0.16808   0.49895   0.75962   0.00000  Uiso   1.00
H259   H     0.19860   0.47265   0.69195   0.00000  Uiso   1.00
C260   C     0.19235   0.52610   0.06125   0.00000  Uiso   1.00
C261   C     0.16163   0.50627   0.03179   0.00000  Uiso   1.00
C262   C     0.15182   0.52223   1.00026   0.00000  Uiso   1.00
C263   C     0.17269   0.55820   0.99795   0.00000  Uiso   1.00
C264   C     0.20254   0.57876   0.02849   0.00000  Uiso   1.00
C265   C     0.21241   0.56268   0.05975   0.00000  Uiso   1.00
C266   C     0.20477   0.50789   0.09263   0.00000  Uiso   1.00
C267   C     0.18463   0.51527   0.12926   0.00000  Uiso   1.00
C268   C     0.19780   0.49973   0.16000   0.00000  Uiso   1.00
C269   C     0.23113   0.47627   0.15428   0.00000  Uiso   1.00
C270   C     0.25103   0.46881   0.11727   0.00000  Uiso   1.00
C271   C     0.23807   0.48472   0.08684   0.00000  Uiso   1.00
C272   C     0.24643   0.46117   0.18738   0.00000  Uiso   1.00
C273   C     0.26187   0.42078   0.17621   0.00000  Uiso   1.00
C274   C     0.28091   0.40871   0.20655   0.00000  Uiso   1.00
C275   C     0.28488   0.43675   0.24865   0.00000  Uiso   1.00
C276   C     0.26714   0.47585   0.26048   0.00000  Uiso   1.00
C277   C     0.24813   0.48803   0.23005   0.00000  Uiso   1.00
H278   H     0.14589   0.47797   1.03268   0.00000  Uiso   1.00
H279   H     0.12849   0.50600   0.97729   0.00000  Uiso   1.00
H280   H     0.21861   0.60696   0.02785   0.00000  Uiso   1.00
H281   H     0.23604   0.57845   0.08251   0.00000  Uiso   1.00
H282   H     0.15917   0.53368   0.13431   0.00000  Uiso   1.00
H283   H     0.18197   0.50605   0.18822   0.00000  Uiso   1.00
H284   H     0.27724   0.45164   0.11237   0.00000  Uiso   1.00
H285   H     0.25421   0.47928   0.05891   0.00000  Uiso   1.00
H286   H     0.26014   0.39897   0.14377   0.00000  Uiso   1.00
H287   H     0.29384   0.37806   0.19678   0.00000  Uiso   1.00
H288   H     0.26968   0.49792   0.29284   0.00000  Uiso   1.00
H289   H     0.23662   0.51940   0.23960   0.00000  Uiso   1.00
C290   C     0.23926   0.25615   0.47315   0.00000  Uiso   1.00
C291   C     0.24984   0.24845   0.43171   0.00000  Uiso   1.00
C292   C     0.28531   0.26511   0.42419   0.00000  Uiso   1.00
C293   C     0.31045   0.29064   0.45787   0.00000  Uiso   1.00
C294   C     0.30027   0.29825   0.49918   0.00000  Uiso   1.00
C295   C     0.26529   0.28065   0.50675   0.00000  Uiso   1.00
C296   C     0.20067   0.24034   0.48142   0.00000  Uiso   1.00
C297   C     0.18095   0.26513   0.51632   0.00000  Uiso   1.00
C298   C     0.14444   0.25126   0.52393   0.00000  Uiso   1.00
C299   C     0.12576   0.21288   0.49609   0.00000  Uiso   1.00
C300   C     0.14562   0.18769   0.46134   0.00000  Uiso   1.00
C301   C     0.18273   0.20114   0.45426   0.00000  Uiso   1.00
C302   C     0.08548   0.20030   0.50318   0.00000  Uiso   1.00
C303   C     0.07247   0.15702   0.49231   0.00000  Uiso   1.00
C304   C     0.03505   0.14609   0.50110   0.00000  Uiso   1.00
C305   C     1.01040   0.17824   0.52168   0.00000  Uiso   1.00
C306   C     0.02294   0.22124   0.53163   0.00000  Uiso   1.00
C307   C     0.05969   0.23210   0.52190   0.00000  Uiso   1.00
H308   H     0.23032   0.23059   0.40505   0.00000  Uiso   1.00
H309   H     0.29251   0.25932   0.39201   0.00000  Uiso   1.00
H310   H     0.31946   0.31760   0.52560   0.00000  Uiso   1.00
H311   H     0.25865   0.28630   0.53900   0.00000  Uiso   1.00
H312   H     0.19333   0.29584   0.53753   0.00000  Uiso   1.00
H313   H     0.13087   0.27090   0.55185   0.00000  Uiso   1.00
H314   H     0.13231   0.15798   0.43910   0.00000  Uiso   1.00
H315   H     0.19736   0.18078   0.42750   0.00000  Uiso   1.00
H316   H     0.09151   0.13163   0.47825   0.00000  Uiso   1.00
H317   H     1.02592   0.11271   0.49335   0.00000  Uiso   1.00
H318   H     0.00422   0.24664   0.54705   0.00000  Uiso   1.00
H319   H     0.06787   0.26565   0.52933   0.00000  Uiso   1.00
C320   C     1.01075   0.93369   0.66116   0.00000  Uiso   1.00
C321   C     1.02335   0.97676   0.67005   0.00000  Uiso   1.00
C322   C     0.99803   0.00564   0.66382   0.00000  Uiso   1.00
C323   C     0.95986  -0.00817   0.64802   0.00000  Uiso   1.00
C324   C     0.94837   0.94822   0.63568   0.00000  Uiso   1.00
C325   C     0.97334   0.91959   0.64246   0.00000  Uiso   1.00
C326   C     1.03397   0.90489   0.67602   0.00000  Uiso   1.00
C327   C     1.03039   0.86016   0.65493   0.00000  Uiso   1.00
C328   C     1.04459   0.83276   0.67400   0.00000  Uiso   1.00
C329   C     0.06346   0.84944   0.71425   0.00000  Uiso   1.00
C330   C     0.07058   0.89405   0.73328   0.00000  Uiso   1.00
C331   C     1.05573   0.92143   0.71464   0.00000  Uiso   1.00
C332   C     0.07186   0.82109   0.73819   0.00000  Uiso   1.00
C333   C     0.06651   0.83543   0.78170   0.00000  Uiso   1.00
C334   C     0.07154   0.80842   0.80420   0.00000  Uiso   1.00
C335   C     0.08137   0.76612   0.78371   0.00000  Uiso   1.00
C336   C     0.08685   0.75148   0.74035   0.00000  Uiso   1.00
C337   C     0.08249   0.77883   0.71783   0.00000  Uiso   1.00
H338   H     1.05221   0.98863   0.68353   0.00000  Uiso   1.00
H339   H     1.00775   0.03908   0.67315   0.00000  Uiso   1.00
H340   H     0.91909   0.93668   0.62343   0.00000  Uiso   1.00
H341   H     0.96214   0.88704   0.63568   0.00000  Uiso   1.00
H342   H     1.01490   0.84616   0.62453   0.00000  Uiso   1.00
H343   H     1.03867   0.79860   0.65822   0.00000  Uiso   1.00
H344   H     0.08615   0.90800   0.76364   0.00000  Uiso   1.00
H345   H     1.05923   0.95555   0.73203   0.00000  Uiso   1.00
H346   H     0.05725   0.86725   0.79834   0.00000  Uiso   1.00
H347   H     0.06691   0.82041   0.83758   0.00000  Uiso   1.00
H348   H     0.09475   0.71902   0.72395   0.00000  Uiso   1.00
H349   H     0.08740   0.76687   0.68454   0.00000  Uiso   1.00
C350   C     0.02333   0.46714   0.78469   0.00000  Uiso   1.00
C351   C     0.03731   0.48881   0.75909   0.00000  Uiso   1.00
C352   C     0.05720   0.52900   0.77710   0.00000  Uiso   1.00
C353   C     0.06343   0.54811   0.82096   0.00000  Uiso   1.00
C354   C     0.05018   0.52592   0.84640   0.00000  Uiso   1.00
C355   C     0.03028   0.48601   0.82850   0.00000  Uiso   1.00
C356   C     1.00134   0.42511   0.76620   0.00000  Uiso   1.00
C357   C     1.00793   0.39276   0.78228   0.00000  Uiso   1.00
C358   C     0.98675   0.35350   0.76599   0.00000  Uiso   1.00
C359   C     0.95830   0.34556   0.73329   0.00000  Uiso   1.00
C360   C     0.95163   0.37789   0.71702   0.00000  Uiso   1.00
C361   C     0.97293   0.41737   0.73342   0.00000  Uiso   1.00
C362   C     0.93753   0.30271   0.71518   0.00000  Uiso   1.00
C363   C     0.93221   0.28201   0.67147   0.00000  Uiso   1.00
C364   C     0.91869   0.23906   0.65431   0.00000  Uiso   1.00
C365   C     0.90976   0.21573   0.67992   0.00000  Uiso   1.00
C366   C     0.91304   0.23725   0.72384   0.00000  Uiso   1.00
C367   C     0.92669   0.28023   0.74125   0.00000  Uiso   1.00
H368   H     0.03307   0.47452   0.72517   0.00000  Uiso   1.00
H369   H     0.06742   0.54522   0.75678   0.00000  Uiso   1.00
H370   H     0.05428   0.53985   0.88037   0.00000  Uiso   1.00
H371   H     0.01961   0.47029   0.84910   0.00000  Uiso   1.00
H372   H     0.03008   0.39753   0.80700   0.00000  Uiso   1.00
H373   H     0.99338   0.32888   0.77835   0.00000  Uiso   1.00
H374   H     0.92982   0.37276   0.69185   0.00000  Uiso   1.00
H375   H     0.96690   0.44201   0.72084   0.00000  Uiso   1.00
H376   H     0.94042   0.29823   0.65040   0.00000  Uiso   1.00
H377   H     0.91636   0.22392   0.62104   0.00000  Uiso   1.00
H378   H     0.90636   0.22054   0.74492   0.00000  Uiso   1.00
H379   H     0.92975   0.29560   0.77516   0.00000  Uiso   1.00
C380   C     0.79197   0.75191   0.04989   0.00000  Uiso   1.00
C381   C     0.78808   0.78392   0.08935   0.00000  Uiso   1.00
C382   C     0.75429   0.80578   0.09786   0.00000  Uiso   1.00
C383   C     0.72365   0.79569   0.06725   0.00000  Uiso   1.00
C384   C     0.72584   0.76075   0.02946   0.00000  Uiso   1.00
C385   C     0.75995   0.73909   0.02070   0.00000  Uiso   1.00
C386   C     0.83076   0.73712   0.03710   0.00000  Uiso   1.00
C387   C     0.86200   0.76754   1.04456   0.00000  Uiso   1.00
C388   C     0.89783   0.75532   1.02860   0.00000  Uiso   1.00
C389   C     0.90335   0.71232   1.00483   0.00000  Uiso   1.00
C390   C     0.87255   0.68149  -0.00117   0.00000  Uiso   1.00
C391   C     0.83642   0.69384   0.01455   0.00000  Uiso   1.00
C392   C     0.93932   0.70119   0.98200   0.00000  Uiso   1.00
C393   C     0.97542   0.72130   1.00062   0.00000  Uiso   1.00
C394   C     1.00790   0.71674   0.97641   0.00000  Uiso   1.00
C395   C     0.00463   0.69232   0.93320   0.00000  Uiso   1.00
C396   C     0.96919   0.67012   0.91528   0.00000  Uiso   1.00
C397   C     0.93691   0.67442   0.93941   0.00000  Uiso   1.00
H398   H     0.81218   0.79393   0.11255   0.00000  Uiso   1.00
H399   H     0.75297   0.83219   0.12753   0.00000  Uiso   1.00
H400   H     0.70257   0.75262   0.00536   0.00000  Uiso   1.00
H401   H     0.76227   0.71463   0.98994   0.00000  Uiso   1.00
H402   H     0.85816   0.80126   1.06086   0.00000  Uiso   1.00
H403   H     0.92054   0.78000   1.03283   0.00000  Uiso   1.00
H404   H     0.87611   0.64802  -0.01903   0.00000  Uiso   1.00
H405   H     0.81277   0.66980   0.00845   0.00000  Uiso   1.00
H406   H     0.97819   0.74168   0.03356   0.00000  Uiso   1.00
H407   H     0.03505   0.73371   0.99105   0.00000  Uiso   1.00
H408   H    -0.03401   0.65058   0.88211   0.00000  Uiso   1.00
H409   H     0.90952   0.65877   0.92404   0.00000  Uiso   1.00
C410   C     0.54505   0.69070   0.25827   0.00000  Uiso   1.00
C411   C     0.58210   0.71129   0.26315   0.00000  Uiso   1.00
C412   C     0.58994   0.74112   0.24395   0.00000  Uiso   1.00
C413   C     0.56103   0.75024   0.21905   0.00000  Uiso   1.00
C414   C     0.52432   0.72898   0.21346   0.00000  Uiso   1.00
C415   C     0.51633   0.69975   0.23310   0.00000  Uiso   1.00
C416   C     0.53613   0.65944   0.27878   0.00000  Uiso   1.00
C417   C     0.56180   0.62779   0.27764   0.00000  Uiso   1.00
C418   C     0.55157   0.59600   0.29368   0.00000  Uiso   1.00
C419   C     0.51572   0.59567   0.31154   0.00000  Uiso   1.00
C420   C     0.49080   0.62837   0.31422   0.00000  Uiso   1.00
C421   C     0.50087   0.65986   0.29796   0.00000  Uiso   1.00
C422   C     0.50233   0.55959   0.32400   0.00000  Uiso   1.00
C423   C     0.48244   0.56747   0.36093   0.00000  Uiso   1.00
C424   C     0.46183   0.53412   0.36782   0.00000  Uiso   1.00
C425   C     0.46041   0.49243   0.33768   0.00000  Uiso   1.00
C426   C     0.48368   0.48368   0.30302   0.00000  Uiso   1.00
C427   C     0.50452   0.51713   0.29621   0.00000  Uiso   1.00
H428   H     0.60474   0.70488   0.28238   0.00000  Uiso   1.00
H429   H     0.61857   0.75690   0.24842   0.00000  Uiso   1.00
H430   H     0.50152   0.73555   0.19449   0.00000  Uiso   1.00
H431   H     0.48769   0.68391   0.22831   0.00000  Uiso   1.00
H432   H     0.58908   0.62662   0.26284   0.00000  Uiso   1.00
H433   H     0.57126   0.57118   0.29140   0.00000  Uiso   1.00
H434   H     0.46268   0.62848   0.32718   0.00000  Uiso   1.00
H435   H     0.48075   0.68418   0.29973   0.00000  Uiso   1.00
H436   H     0.48082   0.59983   0.38318   0.00000  Uiso   1.00
H437   H     0.44445   0.54158   0.39505   0.00000  Uiso   1.00
H438   H     0.48333   0.45171   0.27947   0.00000  Uiso   1.00
H439   H     0.51958   0.51028   0.26744   0.00000  Uiso   1.00
loop_
_geom_bond_atom_site_label_1
_geom_bond_atom_site_label_2
_geom_bond_distance
_geom_bond_site_symmetry_2
_ccdc_geom_bond_type
Y0     O10     2.232   .     S
Y0     O12     2.248   .     S
Y0     O13     2.260   .     S
Y0     O14     2.258   .     S
Y0     O15     2.267   .     S
Y0     O17     2.224   .     S
Y1     O8      2.274   .     S
Y1     O9      2.243   .     S
Y1     O11     2.251   .     S
Y1     O16     2.258   .     S
Y1     O18     2.265   .     S
Y1     O19     2.249   .     S
C2     O8      1.265   .     A
C2     O9      1.258   .     A
C2     C395    1.475   .     S
C3     O10     1.268   .     A
C3     O11     1.276   .     A
C3     C353    1.476   .     S
C4     O12     1.263   .     A
C4     O13     1.264   .     A
C4     C263    1.476   .     S
C5     O14     1.262   .     A
C5     O15     1.263   .     A
C5     C245    1.480   .     S
C6     O16     1.268   .     A
C6     O17     1.263   .     A
C6     C95     1.480   .     S
C7     O18     1.262   .     A
C7     O19     1.260   .     A
C7     C335    1.474   .     S
Y20    O30     2.232   .     S
Y20    O32     2.251   .     S
Y20    O33     2.260   .     S
Y20    O34     2.265   .     S
Y20    O35     2.256   .     S
Y20    O37     2.238   .     S
Y21    O28     2.270   .     S
Y21    O29     2.245   .     S
Y21    O31     2.245   .     S
Y21    O36     2.251   .     S
Y21    O38     2.268   .     S
Y21    O39     2.257   .     S
C22    O28     1.262   .     A
C22    O29     1.257   .     A
C22    C383    1.471   .     S
C23    O30     1.269   .     A
C23    O31     1.273   .     A
C23    C215    1.479   .     S
C24    O32     1.262   .     A
C24    O33     1.263   .     A
C24    C413    1.473   .     S
C25    O34     1.262   .     A
C25    O35     1.260   .     A
C25    C125    1.476   .     S
C26    O36     1.272   .     A
C26    O37     1.268   .     A
C26    C83     1.479   .     S
C27    O38     1.260   .     A
C27    O39     1.258   .     A
C27    C185    1.476   .     S
Y40    O50     2.251   .     S
Y40    O52     2.241   .     S
Y40    O53     2.268   .     S
Y40    O54     2.241   .     S
Y40    O55     2.263   .     S
Y40    O57     2.246   .     S
Y41    O48     2.273   .     S
Y41    O49     2.255   .     S
Y41    O51     2.275   .     S
Y41    O56     2.278   .     S
Y41    O58     2.271   .     S
Y41    O59     2.261   .     S
C42    O48     1.260   .     A
C42    O49     1.257   .     A
C42    C323    1.477   .     S
C43    O50     1.271   .     A
C43    O51     1.275   .     A
C43    C203    1.475   .     S
C44    O52     1.262   .     A
C44    O53     1.270   .     A
C44    C305    1.473   .     S
C45    O54     1.261   .     A
C45    O55     1.267   .     A
C45    C143    1.471   .     S
C46    O56     1.270   .     A
C46    O57     1.267   .     A
C46    C365    1.489   .     S
C47    O58     1.259   .     A
C47    O59     1.258   .     A
C47    C173    1.477   .     S
Y60    O70     2.243   .     S
Y60    O72     2.238   .     S
Y60    O73     2.274   .     S
Y60    O74     2.249   .     S
Y60    O75     2.256   .     S
Y60    O77     2.241   .     S
Y61    O68     2.249   .     S
Y61    O69     2.272   .     S
Y61    O71     2.267   .     S
Y61    O76     2.257   .     S
Y61    O78     2.270   .     S
Y61    O79     2.254   .     S
C62    O68     1.256   .     A
C62    O69     1.260   .     A
C62    C425    1.473   .     S
C63    O70     1.270   .     A
C63    O71     1.276   .     A
C63    C233    1.478   .     S
C64    O72     1.258   .     A
C64    O73     1.268   .     A
C64    C155    1.473   .     S
C65    O74     1.261   .     A
C65    O75     1.264   .     A
C65    C293    1.469   .     S
C66    O76     1.267   .     A
C66    O77     1.271   .     A
C66    C113    1.489   .     S
C67    O78     1.259   .     A
C67    O79     1.256   .     A
C67    C275    1.473   .     S
C80    C81     1.409   .     A
C80    C85     1.407   .     A
C80    C86     1.493   .     S
C81    C82     1.400   .     A
C81    H98     1.082   .     S
C82    C83     1.404   .     A
C82    H99     1.083   .     S
C83    C84     1.403   .     A
C84    C85     1.397   .     A
C84    H100    1.083   .     S
C85    H101    1.082   1_554 S
C86    C91     1.406   .     A
C86    C87     1.407   1_554 A
C87    C88     1.399   .     A
C87    H102    1.082   .     S
C87    C86     1.407   1_556 A
C88    C89     1.407   .     A
C88    H103    1.082   .     S
C89    C92     1.494   .     S
C89    C90     1.408   1_556 A
C90    C91     1.399   .     A
C90    H104    1.082   .     S
C90    C89     1.408   1_554 A
C91    H105    1.082   .     S
C92    C93     1.407   .     A
C92    C97     1.410   .     A
C93    C94     1.397   .     A
C93    H106    1.082   1_556 S
C94    C95     1.404   .     A
C94    H107    1.083   .     S
C95    C96     1.404   .     A
C96    C97     1.402   .     A
C96    H108    1.084   .     S
C97    H109    1.082   .     S
H101   C85     1.082   1_556 S
H106   C93     1.082   1_554 S
C110   C111    1.406   .     A
C110   C115    1.401   .     A
C110   C116    1.485   .     S
C111   C112    1.403   .     A
C111   H128    1.082   .     S
C112   C113    1.409   .     A
C112   H129    1.083   .     S
C113   C114    1.397   .     A
C114   C115    1.392   .     A
C114   H130    1.060   .     S
C115   H131    1.083   .     S
C116   C117    1.406   .     A
C116   C121    1.406   .     A
C117   C118    1.396   .     A
C117   H132    1.083   .     S
C118   C119    1.403   .     A
C118   H133    1.083   .     S
C119   C120    1.406   .     A
C119   C122    1.482   .     S
C120   C121    1.401   .     A
C120   H134    1.083   .     S
C121   H135    1.083   .     S
C122   C123    1.403   .     A
C122   C127    1.406   .     A
C123   H136    1.083   .     S
C123   C124    1.399   1_545 A
C124   C125    1.405   .     A
C124   H137    1.083   .     S
C124   C123    1.399   1_565 A
C125   C126    1.404   .     A
C126   H138    1.083   .     S
C126   C127    1.399   1_565 A
C127   H139    1.083   .     S
C127   C126    1.399   1_545 A
C140   C141    1.408   .     A
C140   C145    1.402   .     A
C140   C146    1.481   .     S
C141   C142    1.398   .     A
C141   H158    1.083   .     S
C142   C143    1.401   .     A
C142   H159    1.083   .     S
C143   C144    1.404   .     A
C144   C145    1.395   .     A
C144   H160    1.083   .     S
C145   H161    1.082   .     S
C146   C147    1.404   .     A
C146   C151    1.408   .     A
C147   C148    1.393   .     A
C147   H162    1.083   .     S
C148   C149    1.403   .     A
C148   H163    1.083   .     S
C149   C150    1.403   .     A
C149   C152    1.475   .     S
C150   C151    1.400   .     A
C150   H164    1.083   .     S
C151   H165    1.083   .     S
C152   C153    1.400   .     A
C152   C157    1.406   .     A
C153   C154    1.388   .     A
C153   H166    1.084   .     S
C154   C155    1.404   .     A
C154   H167    1.083   .     S
C155   C156    1.404   .     A
C156   C157    1.404   .     A
C156   H168    1.083   .     S
C157   H169    1.083   .     S
C170   C171    1.406   .     A
C170   C175    1.408   1_545 A
C170   C176    1.489   1_545 S
C171   C172    1.397   .     A
C171   H188    1.083   .     S
C172   C173    1.403   .     A
C172   H189    1.083   .     S
C173   C174    1.404   1_545 A
C174   C175    1.400   .     A
C174   H190    1.083   .     S
C174   C173    1.404   1_565 A
C175   H191    1.082   .     S
C175   C170    1.408   1_565 A
C176   C177    1.407   .     A
C176   C170    1.489   1_565 S
C176   C181    1.406   1_565 A
C177   C178    1.400   .     A
C177   H192    1.082   .     S
C178   C179    1.406   .     A
C178   H193    1.083   .     S
C179   C182    1.486   .     S
C179   C180    1.404   1_565 A
C180   C181    1.396   .     A
C180   H194    1.083   .     S
C180   C179    1.404   1_545 A
C181   H195    1.082   .     S
C181   C176    1.406   1_545 A
C182   C183    1.407   .     A
C182   C187    1.405   .     A
C183   C184    1.399   1_556 A
C183   H196    1.083   1_565 S
C184   C185    1.404   .     A
C184   C183    1.399   1_554 A
C184   H197    1.083   1_565 S
C185   C186    1.404   1_554 A
C186   C187    1.397   .     A
C186   H198    1.082   .     S
C186   C185    1.404   1_556 A
C187   H199    1.083   .     S
H196   C183    1.083   1_545 S
H197   C184    1.083   1_545 S
C200   C201    1.406   .     A
C200   C205    1.408   1_545 A
C200   C206    1.487   1_545 S
C201   C202    1.398   .     A
C201   H218    1.083   .     S
C202   C203    1.403   .     A
C202   H219    1.083   .     S
C203   C204    1.404   1_545 A
C204   C205    1.399   .     A
C204   H220    1.084   .     S
C204   C203    1.404   1_565 A
C205   H221    1.083   .     S
C205   C200    1.408   1_565 A
C206   C207    1.407   .     A
C206   C200    1.487   1_565 S
C206   C211    1.406   1_565 A
C207   C208    1.397   .     A
C207   H222    1.083   .     S
C208   C209    1.404   .     A
C208   H223    1.083   .     S
C209   C212    1.484   .     S
C209   C210    1.405   1_565 A
C210   C211    1.398   .     A
C210   H224    1.083   .     S
C210   C209    1.405   1_545 A
C211   H225    1.083   .     S
C211   C206    1.406   1_545 A
C212   C213    1.405   .     A
C212   C217    1.405   .     A
C213   C214    1.398   .     A
C213   H226    1.083   1_565 S
C214   C215    1.405   .     A
C214   H227    1.082   .     S
C215   C216    1.406   .     A
C216   C217    1.396   .     A
C216   H228    1.083   .     S
C217   H229    1.083   .     S
H226   C213    1.083   1_545 S
C230   C231    1.403   .     A
C230   C235    1.405   .     A
C230   C236    1.481   .     S
C231   C232    1.397   .     A
C231   H248    1.083   .     S
C232   C233    1.406   .     A
C232   H249    1.083   .     S
C233   C234    1.405   .     A
C234   C235    1.399   .     A
C234   H250    1.083   .     S
C235   H251    1.083   .     S
C236   C237    1.406   .     A
C236   C241    1.405   .     A
C237   C238    1.399   .     A
C237   H252    1.083   .     S
C238   C239    1.402   .     A
C238   H253    1.083   .     S
C239   C240    1.401   .     A
C239   C242    1.473   .     S
C240   C241    1.398   .     A
C240   H254    1.083   .     S
C241   H255    1.083   .     S
C242   C243    1.402   .     A
C242   C247    1.400   .     A
C243   C244    1.402   .     A
C243   H256    1.083   .     S
C244   C245    1.407   .     A
C244   H257    1.083   .     S
C245   C246    1.406   .     A
C246   C247    1.398   .     A
C246   H258    1.083   .     S
C247   H259    1.083   .     S
C260   C261    1.402   .     A
C260   C265    1.400   .     A
C260   C266    1.470   .     S
C261   C262    1.401   1_554 A
C261   H278    1.083   1_554 S
C262   C263    1.406   .     A
C262   H279    1.083   .     S
C262   C261    1.401   1_556 A
C263   C264    1.405   1_556 A
C264   C265    1.396   .     A
C264   H280    1.083   .     S
C264   C263    1.405   1_554 A
C265   H281    1.083   .     S
C266   C267    1.401   .     A
C266   C271    1.401   .     A
C267   C268    1.400   .     A
C267   H282    1.083   .     S
C268   C269    1.407   .     A
C268   H283    1.083   .     S
C269   C270    1.407   .     A
C269   C272    1.484   .     S
C270   C271    1.396   .     A
C270   H284    1.083   .     S
C271   H285    1.084   .     S
C272   C273    1.405   .     A
C272   C277    1.407   .     A
C273   C274    1.395   .     A
C273   H286    1.083   .     S
C274   C275    1.403   .     A
C274   H287    1.083   .     S
C275   C276    1.403   .     A
C276   C277    1.399   .     A
C276   H288    1.083   .     S
C277   H289    1.083   .     S
H278   C261    1.083   1_556 S
C290   C291    1.407   .     A
C290   C295    1.409   .     A
C290   C296    1.489   .     S
C291   C292    1.397   .     A
C291   H308    1.082   .     S
C292   C293    1.403   .     A
C292   H309    1.084   .     S
C293   C294    1.400   .     A
C294   C295    1.397   .     A
C294   H310    1.083   .     S
C295   H311    1.082   .     S
C296   C297    1.404   .     A
C296   C301    1.408   .     A
C297   C298    1.393   .     A
C297   H312    1.082   .     S
C298   C299    1.407   .     A
C298   H313    1.082   .     S
C299   C300    1.408   .     A
C299   C302    1.493   .     S
C300   C301    1.401   .     A
C300   H314    1.082   .     S
C301   H315    1.083   .     S
C302   C303    1.410   .     A
C302   C307    1.407   .     A
C303   C304    1.403   .     A
C303   H316    1.081   .     S
C304   C305    1.402   1_455 A
C304   H317    1.082   1_455 S
C305   C304    1.402   1_655 A
C305   C306    1.401   1_655 A
C306   C307    1.393   .     A
C306   H318    1.084   .     S
C306   C305    1.401   1_455 A
C307   H319    1.082   .     S
H317   C304    1.082   1_655 S
C320   C321    1.409   .     A
C320   C325    1.407   .     A
C320   C326    1.493   .     S
C321   H338    1.082   .     S
C321   C322    1.401   1_565 A
C322   C323    1.404   .     A
C322   H339    1.083   .     S
C322   C321    1.401   1_545 A
C323   C324    1.402   1_545 A
C324   C325    1.394   .     A
C324   H340    1.083   .     S
C324   C323    1.402   1_565 A
C325   H341    1.081   .     S
C326   C327    1.408   .     A
C326   C331    1.407   .     A
C327   C328    1.399   .     A
C327   H342    1.082   .     S
C328   H343    1.082   .     S
C328   C329    1.406   1_655 A
C329   C330    1.406   .     A
C329   C332    1.490   .     S
C329   C328    1.406   1_455 A
C330   H344    1.082   .     S
C330   C331    1.396   1_455 A
C331   H345    1.082   .     S
C331   C330    1.396   1_655 A
C332   C333    1.408   .     A
C332   C337    1.408   .     A
C333   C334    1.394   .     A
C333   H346    1.082   .     S
C334   C335    1.401   .     A
C334   H347    1.083   .     S
C335   C336    1.404   .     A
C336   C337    1.401   .     A
C336   H348    1.083   .     S
C337   H349    1.082   .     S
C350   C351    1.406   .     A
C350   C355    1.404   .     A
C350   C356    1.482   1_455 S
C351   C352    1.400   .     A
C351   H368    1.083   .     S
C352   C353    1.404   .     A
C352   H369    1.082   .     S
C353   C354    1.406   .     A
C354   C355    1.392   .     A
C354   H370    1.084   .     S
C355   H371    1.084   .     S
C356   C357    1.403   .     A
C356   C361    1.406   .     A
C356   C350    1.482   1_655 S
C357   C358    1.392   .     A
C357   H372    1.083   1_655 S
C358   C359    1.404   .     A
C358   H373    1.083   .     S
C359   C360    1.407   .     A
C359   C362    1.484   .     S
C360   C361    1.400   .     A
C360   H374    1.083   .     S
C361   H375    1.083   .     S
C362   C363    1.401   .     A
C362   C367    1.406   .     A
C363   C364    1.396   .     A
C363   H376    1.083   .     S
C364   C365    1.399   .     A
C364   H377    1.062   .     S
C365   C366    1.407   .     A
C366   C367    1.399   .     A
C366   H378    1.083   .     S
C367   H379    1.083   .     S
H372   C357    1.083   1_455 S
C380   C381    1.403   .     A
C380   C385    1.407   .     A
C380   C386    1.480   .     S
C381   C382    1.393   .     A
C381   H398    1.083   .     S
C382   C383    1.403   .     A
C382   H399    1.083   .     S
C383   C384    1.403   .     A
C384   C385    1.400   .     A
C384   H400    1.083   .     S
C385   H401    1.083   1_554 S
C386   C391    1.403   .     A
C386   C387    1.404   1_554 A
C387   C388    1.392   .     A
C387   H402    1.083   .     S
C387   C386    1.404   1_556 A
C388   C389    1.403   .     A
C388   H403    1.082   .     S
C389   C392    1.483   .     S
C389   C390    1.408   1_556 A
C390   C391    1.400   .     A
C390   H404    1.082   .     S
C390   C389    1.408   1_554 A
C391   H405    1.083   .     S
C392   C393    1.409   .     A
C392   C397    1.403   .     A
C393   C394    1.401   .     A
C393   H406    1.083   1_556 S
C394   C395    1.403   1_655 A
C394   H407    1.083   1_655 S
C395   C394    1.403   1_455 A
C395   C396    1.405   1_455 A
C396   C397    1.394   .     A
C396   C395    1.405   1_655 A
C396   H408    1.083   1_655 S
C397   H409    1.083   .     S
H401   C385    1.083   1_556 S
H406   C393    1.083   1_554 S
H407   C394    1.083   1_455 S
H408   C396    1.083   1_455 S
C410   C411    1.405   .     A
C410   C415    1.405   .     A
C410   C416    1.482   .     S
C411   C412    1.400   .     A
C411   H428    1.083   .     S
C412   C413    1.405   .     A
C412   H429    1.083   .     S
C413   C414    1.402   .     A
C414   C415    1.395   .     A
C414   H430    1.083   .     S
C415   H431    1.083   .     S
C416   C417    1.406   .     A
C416   C421    1.404   .     A
C417   C418    1.399   .     A
C417   H432    1.083   .     S
C418   C419    1.404   .     A
C418   H433    1.083   .     S
C419   C420    1.405   .     A
C419   C422    1.480   .     S
C420   C421    1.394   .     A
C420   H434    1.084   .     S
C421   H435    1.083   .     S
C422   C423    1.403   .     A
C422   C427    1.406   .     A
C423   C424    1.394   .     A
C423   H436    1.083   .     S
C424   C425    1.404   .     A
C424   H437    1.083   .     S
C425   C426    1.404   .     A
C426   C427    1.399   .     A
C426   H438    1.083   .     S
C427   H439    1.083   .     S
