data_lcy+N123+E1
_audit_creation_date              2025-01-21
_audit_creation_method            'Materials Studio'
_symmetry_space_group_name_H-M    'P1'
_symmetry_Int_Tables_number       1
_symmetry_cell_setting            triclinic
loop_
_symmetry_equiv_pos_as_xyz
  x,y,z
_cell_length_a                    35.3798
_cell_length_b                    31.3817
_cell_length_c                    32.5200
_cell_angle_alpha                 92.5014
_cell_angle_beta                  101.5979
_cell_angle_gamma                 90.6226
loop_
_atom_site_label
_atom_site_type_symbol
_atom_site_fract_x
_atom_site_fract_y
_atom_site_fract_z
_atom_site_U_iso_or_equiv
_atom_site_adp_type
_atom_site_occupancy
Ce0    Ce    0.15728   0.62044   0.85180   0.00000  Uiso   1.00
Ce1    Ce    0.10334   0.64201   0.91337   0.00000  Uiso   1.00
C2     C     0.18071   0.67012   0.93824   0.00000  Uiso   1.00
C3     C     0.19682   0.59433   0.79220   0.00000  Uiso   1.00
C4     C     0.09178   0.69252   0.82586   0.00000  Uiso   1.00
C5     C     0.10148   0.56043   0.83016   0.00000  Uiso   1.00
C6     C     0.04930   0.65346   0.96034   0.00000  Uiso   1.00
C7     C     0.16744   0.56807   0.93856   0.00000  Uiso   1.00
O8     O     0.16210   0.65506   0.96144   0.00000  Uiso   1.00
O9     O     0.15845   0.67402   0.89957   0.00000  Uiso   1.00
O10    O     0.20837   0.62589   0.81815   0.00000  Uiso   1.00
O11    O     0.16605   0.57567   0.79774   0.00000  Uiso   1.00
O12    O     0.11777   0.66920   0.81287   0.00000  Uiso   1.00
O13    O     0.08098   0.68827   0.86146   0.00000  Uiso   1.00
O14    O     0.12795   0.56294   0.81119   0.00000  Uiso   1.00
O15    O     0.10304   0.59200   0.86175   0.00000  Uiso   1.00
O16    O     0.04888   0.62195   0.93424   0.00000  Uiso   1.00
O17    O     0.07860   0.67871   0.96415   0.00000  Uiso   1.00
O18    O     0.13811   0.58806   0.94794   0.00000  Uiso   1.00
O19    O     0.18234   0.57535   0.90583   0.00000  Uiso   1.00
Ce20   Ce    0.59685   0.90478   0.11558   0.00000  Uiso   1.00
Ce21   Ce    0.64941   0.83584   0.09680   0.00000  Uiso   1.00
C22    C     0.57700   0.81452   0.05277   0.00000  Uiso   1.00
C23    C     0.55505   0.96944   0.13994   0.00000  Uiso   1.00
C24    C     0.65252   0.92494   0.05000   0.00000  Uiso   1.00
C25    C     0.65871   0.92277   0.17687   0.00000  Uiso   1.00
C26    C     0.70312   0.77881   0.08324   0.00000  Uiso   1.00
C27    C     0.59391   0.81551   0.16183   0.00000  Uiso   1.00
O28    O     0.60344   0.78970   0.05727   0.00000  Uiso   1.00
O29    O     0.59014   0.85600   0.06205   0.00000  Uiso   1.00
O30    O     0.54239   0.94539   0.10711   0.00000  Uiso   1.00
O31    O     0.58869   0.96043   0.15997   0.00000  Uiso   1.00
O32    O     0.62814   0.94140   0.07114   0.00000  Uiso   1.00
O33    O     0.66433   0.88592   0.05302   0.00000  Uiso   1.00
O34    O     0.62929   0.94369   0.17276   0.00000  Uiso   1.00
O35    O     0.65724   0.88893   0.14725   0.00000  Uiso   1.00
O36    O     0.70745   0.80409   0.11549   0.00000  Uiso   1.00
O37    O     0.67023   0.78068   0.05872   0.00000  Uiso   1.00
O38    O     0.62177   0.80171   0.14472   0.00000  Uiso   1.00
O39    O     0.57883   0.85288   0.15658   0.00000  Uiso   1.00
Ce40   Ce    0.89221   0.13906   0.59106   0.00000  Uiso   1.00
Ce41   Ce    0.84492   0.11998   0.66257   0.00000  Uiso   1.00
C42    C     0.82289   0.07737   0.58459   0.00000  Uiso   1.00
C43    C     0.94150   0.16362   0.54243   0.00000  Uiso   1.00
C44    C     0.93051   0.07813   0.66892   0.00000  Uiso   1.00
C45    C     0.91456   0.18152   0.66857   0.00000  Uiso   1.00
C46    C     0.80412   0.10307   0.72170   0.00000  Uiso   1.00
C47    C     0.80455   0.17675   0.58257   0.00000  Uiso   1.00
O48    O     0.80039   0.09278   0.60402   0.00000  Uiso   1.00
O49    O     0.85974   0.08225   0.60676   0.00000  Uiso   1.00
O50    O     0.92549   0.12657   0.53788   0.00000  Uiso   1.00
O51    O     0.93013   0.18837   0.56925   0.00000  Uiso   1.00
O52    O     0.93561   0.09758   0.63575   0.00000  Uiso   1.00
O53    O     0.90064   0.08311   0.68633   0.00000  Uiso   1.00
O54    O     0.93653   0.16222   0.65103   0.00000  Uiso   1.00
O55    O     0.87747   0.17679   0.64651   0.00000  Uiso   1.00
O56    O     0.81984   0.13952   0.71965   0.00000  Uiso   1.00
O57    O     0.80834   0.07563   0.69283   0.00000  Uiso   1.00
O58    O     0.80140   0.16011   0.61785   0.00000  Uiso   1.00
O59    O     0.83471   0.17340   0.56523   0.00000  Uiso   1.00
Ce60   Ce    0.40937   0.40786   0.38852   0.00000  Uiso   1.00
Ce61   Ce    0.34825   0.33708   0.40229   0.00000  Uiso   1.00
C62    C     0.42264   0.31501   0.42685   0.00000  Uiso   1.00
C63    C     0.44579   0.47786   0.36713   0.00000  Uiso   1.00
C64    C     0.34011   0.43587   0.43422   0.00000  Uiso   1.00
C65    C     0.34350   0.41259   0.32707   0.00000  Uiso   1.00
C66    C     0.29012   0.29260   0.42061   0.00000  Uiso   1.00
C67    C     0.40896   0.33182   0.33100   0.00000  Uiso   1.00
O68    O     0.39717   0.28919   0.41004   0.00000  Uiso   1.00
O69    O     0.40900   0.35547   0.43563   0.00000  Uiso   1.00
O70    O     0.45909   0.45826   0.40038   0.00000  Uiso   1.00
O71    O     0.41434   0.46205   0.34589   0.00000  Uiso   1.00
O72    O     0.37451   0.44541   0.42990   0.00000  Uiso   1.00
O73    O     0.32188   0.40176   0.41710   0.00000  Uiso   1.00
O74    O     0.36687   0.44165   0.33791   0.00000  Uiso   1.00
O75    O     0.35623   0.37485   0.34594   0.00000  Uiso   1.00
O76    O     0.29159   0.30107   0.38254   0.00000  Uiso   1.00
O77    O     0.31929   0.30557   0.44914   0.00000  Uiso   1.00
O78    O     0.37352   0.33410   0.33791   0.00000  Uiso   1.00
O79    O     0.43407   0.36074   0.34716   0.00000  Uiso   1.00
C80    C     0.45794   0.77551   0.01192   0.00000  Uiso   1.00
C81    C     0.48757   0.74622   1.01100   0.00000  Uiso   1.00
C82    C     0.52628   0.75907   0.02351   0.00000  Uiso   1.00
C83    C     0.53624   0.80165   0.03668   0.00000  Uiso   1.00
C84    C     0.50678   0.83121   0.03678   0.00000  Uiso   1.00
C85    C     0.46797   0.81825   0.02464   0.00000  Uiso   1.00
C86    C     0.41684   0.76100   0.00079   0.00000  Uiso   1.00
C87    C     0.39032   0.77462   0.02530   0.00000  Uiso   1.00
C88    C     0.35211   0.75923   0.01593   0.00000  Uiso   1.00
C89    C     0.33951   0.73028   0.98156   0.00000  Uiso   1.00
C90    C     0.36597   0.71698   0.95690   0.00000  Uiso   1.00
C91    C     0.40415   0.73213   0.96640   0.00000  Uiso   1.00
C92    C     0.29884   0.71437   0.97090   0.00000  Uiso   1.00
C93    C     0.27896   0.71173   0.92886   0.00000  Uiso   1.00
C94    C     0.24068   0.69704   0.91852   0.00000  Uiso   1.00
C95    C     0.22149   0.68433   0.94993   0.00000  Uiso   1.00
C96    C     0.24134   0.68641   0.99193   0.00000  Uiso   1.00
C97    C     0.27961   0.70160   1.00237   0.00000  Uiso   1.00
H98    H     0.48079   0.71303   1.00168   0.00000  Uiso   1.00
H99    H     0.54841   0.73551   1.02349   0.00000  Uiso   1.00
H100   H     0.51372   0.86415   0.04706   0.00000  Uiso   1.00
H101   H     0.44581   0.84167   0.02518   0.00000  Uiso   1.00
H102   H     0.39929   0.79660   0.05219   0.00000  Uiso   1.00
H103   H     0.33230   0.77031   0.03529   0.00000  Uiso   1.00
H104   H     0.35722   0.69438   0.93049   0.00000  Uiso   1.00
H105   H     0.42375   0.72137   0.94666   0.00000  Uiso   1.00
H106   H     0.29286   0.72169   0.90398   0.00000  Uiso   1.00
H107   H     0.22609   0.69569   0.88584   0.00000  Uiso   1.00
H108   H     0.22713   0.67668   1.01664   0.00000  Uiso   1.00
H109   H     0.29433   0.70291   0.03498   0.00000  Uiso   1.00
C110   C     0.43975   0.22764   0.25519   0.00000  Uiso   1.00
C111   C     0.40354   0.22806   0.26660   0.00000  Uiso   1.00
C112   C     0.39294   0.26284   0.28972   0.00000  Uiso   1.00
C113   C     0.41851   0.29774   0.30225   0.00000  Uiso   1.00
C114   C     0.45437   0.29777   0.28995   0.00000  Uiso   1.00
C115   C     0.46478   0.26314   0.26635   0.00000  Uiso   1.00
C116   C     0.45247   0.18888   0.23472   0.00000  Uiso   1.00
C117   C     0.47008   0.19145   0.19981   0.00000  Uiso   1.00
C118   C     0.48318   0.15455   0.18178   0.00000  Uiso   1.00
C119   C     0.47960   0.11481   0.19903   0.00000  Uiso   1.00
C120   C     0.46181   0.11230   0.23372   0.00000  Uiso   1.00
C121   C     0.44824   0.14894   0.25129   0.00000  Uiso   1.00
C122   C     0.49721   0.07656   0.18334   0.00000  Uiso   1.00
C123   C     0.52380   0.05367   0.21147   0.00000  Uiso   1.00
C124   C     0.54214   1.01862   0.19711   0.00000  Uiso   1.00
C125   C     0.53356   1.00510   0.15448   0.00000  Uiso   1.00
C126   C     0.50622   0.02727   0.12636   0.00000  Uiso   1.00
C127   C     0.48845   0.06315   0.14064   0.00000  Uiso   1.00
H128   H     0.38378   0.20101   0.25832   0.00000  Uiso   1.00
H129   H     0.36527   0.26161   0.29910   0.00000  Uiso   1.00
H130   H     0.47483   0.32399   0.29951   0.00000  Uiso   1.00
H131   H     0.49308   0.26328   0.25845   0.00000  Uiso   1.00
H132   H     0.47391   0.22198   0.18673   0.00000  Uiso   1.00
H133   H     0.49729   0.15718   0.15535   0.00000  Uiso   1.00
H134   H     0.45892   0.08198   0.24758   0.00000  Uiso   1.00
H135   H     0.43553   0.14626   0.27873   0.00000  Uiso   1.00
H136   H     0.53103   0.06357   0.24449   0.00000  Uiso   1.00
H137   H     0.56320   1.00212   0.21942   0.00000  Uiso   1.00
H138   H     0.49952   0.01763   0.09329   0.00000  Uiso   1.00
H139   H     0.46787   0.08037   0.11850   0.00000  Uiso   1.00
C140   C     0.70015   0.23407   0.52059   0.00000  Uiso   1.00
C141   C     0.71108   0.23593   0.56456   0.00000  Uiso   1.00
C142   C     0.74567   0.21855   0.58435   0.00000  Uiso   1.00
C143   C     0.77048   0.19930   0.56069   0.00000  Uiso   1.00
C144   C     0.76033   0.19850   0.51661   0.00000  Uiso   1.00
C145   C     0.72517   0.21536   0.49670   0.00000  Uiso   1.00
C146   C     0.66169   0.24949   0.50048   0.00000  Uiso   1.00
C147   C     0.64786   0.28792   0.51499   0.00000  Uiso   1.00
C148   C     0.60986   0.29995   0.49993   0.00000  Uiso   1.00
C149   C     0.58468   0.27375   0.47001   0.00000  Uiso   1.00
C150   C     0.59924   0.23625   0.45413   0.00000  Uiso   1.00
C151   C     0.63728   0.22425   0.46924   0.00000  Uiso   1.00
C152   C     0.54307   0.28435   0.45711   0.00000  Uiso   1.00
C153   C     0.51450   0.25178   0.44862   0.00000  Uiso   1.00
C154   C     0.47538   0.26162   0.43822   0.00000  Uiso   1.00
C155   C     0.46385   0.30421   0.43691   0.00000  Uiso   1.00
C156   C     0.49213   0.33679   0.44481   0.00000  Uiso   1.00
C157   C     0.53129   0.32701   0.45456   0.00000  Uiso   1.00
H158   H     0.69211   0.24939   0.58379   0.00000  Uiso   1.00
H159   H     0.75267   0.21939   0.61836   0.00000  Uiso   1.00
H160   H     0.77873   0.18334   0.49765   0.00000  Uiso   1.00
H161   H     0.71730   0.21334   0.46272   0.00000  Uiso   1.00
H162   H     0.66628   0.30820   0.53877   0.00000  Uiso   1.00
H163   H     0.59994   0.32901   0.51305   0.00000  Uiso   1.00
H164   H     0.58107   0.21567   0.43049   0.00000  Uiso   1.00
H165   H     0.64711   0.19433   0.45770   0.00000  Uiso   1.00
H166   H     0.52222   0.21861   0.45094   0.00000  Uiso   1.00
H167   H     0.45412   0.23586   0.43203   0.00000  Uiso   1.00
H168   H     0.48391   0.36986   0.44297   0.00000  Uiso   1.00
H169   H     0.55230   0.35298   0.45989   0.00000  Uiso   1.00
C170   C     0.75410   0.07151   0.82624   0.00000  Uiso   1.00
C171   C     0.76145   0.11433   0.81943   0.00000  Uiso   1.00
C172   C     0.77676   0.12492   0.78461   0.00000  Uiso   1.00
C173   C     0.78425   0.09282   0.75590   0.00000  Uiso   1.00
C174   C     0.77512   0.05022   0.76189   0.00000  Uiso   1.00
C175   C     0.76051   0.03965   0.79695   0.00000  Uiso   1.00
C176   C     0.74218   0.05900   0.86497   0.00000  Uiso   1.00
C177   C     0.76527   1.03110   0.89117   0.00000  Uiso   1.00
C178   C     0.75237   1.01416   0.92485   0.00000  Uiso   1.00
C179   C     0.71575   1.02419   0.93266   0.00000  Uiso   1.00
C180   C     0.69357   0.05423   0.90788   0.00000  Uiso   1.00
C181   C     0.70681   0.07167   0.87428   0.00000  Uiso   1.00
C182   C     0.69961   0.99998   0.96362   0.00000  Uiso   1.00
C183   C     0.67712   0.01955   0.98990   0.00000  Uiso   1.00
C184   C     0.66144   0.99544   0.01802   0.00000  Uiso   1.00
C185   C     0.66808   0.95140   0.02030   0.00000  Uiso   1.00
C186   C     0.69031   0.93209  -0.00633   0.00000  Uiso   1.00
C187   C     0.70584   0.95598   0.96586   0.00000  Uiso   1.00
H188   H     0.75682   0.13928   0.84184   0.00000  Uiso   1.00
H189   H     0.78355   0.15803   0.78067   0.00000  Uiso   1.00
H190   H     0.78059   1.02485   0.74033   0.00000  Uiso   1.00
H191   H     0.75484   1.00643   0.80174   0.00000  Uiso   1.00
H192   H     0.79289   1.02145   0.88473   0.00000  Uiso   1.00
H193   H     0.77057   0.99197   0.94396   0.00000  Uiso   1.00
H194   H     0.66519   0.06245   0.91301   0.00000  Uiso   1.00
H195   H     0.68861   0.09321   0.85431   0.00000  Uiso   1.00
H196   H     0.67207   0.05348   0.98901   0.00000  Uiso   1.00
H197   H     0.64435   0.01122   0.03803   0.00000  Uiso   1.00
H198   H     0.69561   0.89818  -0.00606   0.00000  Uiso   1.00
H199   H     0.72229   0.93967   0.94548   0.00000  Uiso   1.00
C200   C     0.79298   0.02392   0.45868   0.00000  Uiso   1.00
C201   C     0.83045   0.01976   0.48237   0.00000  Uiso   1.00
C202   C     0.84000   0.03658   0.52373   0.00000  Uiso   1.00
C203   C     0.81212   0.05735   0.54209   0.00000  Uiso   1.00
C204   C     0.77440   0.06039   0.51888   0.00000  Uiso   1.00
C205   C     0.76495   0.04393   0.47750   0.00000  Uiso   1.00
C206   C     0.78296   0.00841   0.41416   0.00000  Uiso   1.00
C207   C     0.76063   0.03374   0.38443   0.00000  Uiso   1.00
C208   C     0.74800   0.01824   0.34317   0.00000  Uiso   1.00
C209   C     0.75779   0.97716   0.33034   0.00000  Uiso   1.00
C210   C     0.78155   0.95238   0.35970   0.00000  Uiso   1.00
C211   C     0.79412   0.96795   0.40128   0.00000  Uiso   1.00
C212   C     0.74012   0.95961   0.28756   0.00000  Uiso   1.00
C213   C     0.72564   0.91734   0.28138   0.00000  Uiso   1.00
C214   C     0.70163   0.90382   0.24331   0.00000  Uiso   1.00
C215   C     0.69145   0.93255   0.21137   0.00000  Uiso   1.00
C216   C     0.70802   0.97360   0.21621   0.00000  Uiso   1.00
C217   C     0.73275   0.98677   0.25370   0.00000  Uiso   1.00
H218   H     0.85255   1.00453   0.46855   0.00000  Uiso   1.00
H219   H     0.86927   1.03377   0.54120   0.00000  Uiso   1.00
H220   H     0.75240   0.07621   0.53243   0.00000  Uiso   1.00
H221   H     0.73569   0.04690   0.46010   0.00000  Uiso   1.00
H222   H     0.75227   0.06538   0.39334   0.00000  Uiso   1.00
H223   H     0.72913   0.03794   0.32179   0.00000  Uiso   1.00
H224   H     0.78981   0.92072   0.35077   0.00000  Uiso   1.00
H225   H     0.81139   0.94781   0.42368   0.00000  Uiso   1.00
H226   H     0.73039   0.89573   0.30689   0.00000  Uiso   1.00
H227   H     0.68852   0.87218   0.24012   0.00000  Uiso   1.00
H228   H     0.70039  -0.00390   0.19171   0.00000  Uiso   1.00
H229   H     0.74432   0.01910   0.25702   0.00000  Uiso   1.00
C230   C     0.29547   0.50113   0.53244   0.00000  Uiso   1.00
C231   C     0.32910   0.51667   0.52099   0.00000  Uiso   1.00
C232   C     0.34222   0.49773   0.48672   0.00000  Uiso   1.00
C233   C     0.32181   0.46303   0.46310   0.00000  Uiso   1.00
C234   C     0.28642   0.45011   0.47250   0.00000  Uiso   1.00
C235   C     0.27359   0.46871   0.50692   0.00000  Uiso   1.00
C236   C     0.28469   0.51597   0.57253   0.00000  Uiso   1.00
C237   C     0.27397   0.48598   0.59910   0.00000  Uiso   1.00
C238   C     0.26310   0.49910   0.63651   0.00000  Uiso   1.00
C239   C     0.26211   0.54264   0.64826   0.00000  Uiso   1.00
C240   C     0.27389   0.57275   0.62231   0.00000  Uiso   1.00
C241   C     0.28533   0.55950   0.58493   0.00000  Uiso   1.00
C242   C     0.24677   0.55605   0.68623   0.00000  Uiso   1.00
C243   C     0.26297   0.59078   0.71318   0.00000  Uiso   1.00
C244   C     0.24757   0.60290   0.74847   0.00000  Uiso   1.00
C245   C     0.21569   0.58058   0.75726   0.00000  Uiso   1.00
C246   C     0.19996   0.54568   0.73062   0.00000  Uiso   1.00
C247   C     0.21506   0.53381   0.69550   0.00000  Uiso   1.00
H248   H     0.34647   0.54169   0.54004   0.00000  Uiso   1.00
H249   H     0.36948   0.50866   0.48029   0.00000  Uiso   1.00
H250   H     0.26963   0.42388   0.45481   0.00000  Uiso   1.00
H251   H     0.24716   0.45663   0.51453   0.00000  Uiso   1.00
H252   H     0.27419   0.45217   0.59104   0.00000  Uiso   1.00
H253   H     0.25530   0.47498   0.65629   0.00000  Uiso   1.00
H254   H     0.27319   0.60655   0.63022   0.00000  Uiso   1.00
H255   H     0.29363   0.58331   0.56514   0.00000  Uiso   1.00
H256   H     0.28757   0.60843   0.70713   0.00000  Uiso   1.00
H257   H     0.26022   0.62994   0.76851   0.00000  Uiso   1.00
H258   H     0.17533   0.52785   0.73644   0.00000  Uiso   1.00
H259   H     0.20124   0.50760   0.67503   0.00000  Uiso   1.00
C260   C     0.21409   0.49029   0.04054   0.00000  Uiso   1.00
C261   C     0.17450   0.48868   0.02266   0.00000  Uiso   1.00
C262   C     0.15996   0.51157   0.98733   0.00000  Uiso   1.00
C263   C     0.18463   0.53633   0.96870   0.00000  Uiso   1.00
C264   C     0.22458   0.53529   0.98423   0.00000  Uiso   1.00
C265   C     0.23923   0.51245   0.02001   0.00000  Uiso   1.00
C266   C     0.22817   0.47233   0.08239   0.00000  Uiso   1.00
C267   C     0.26312   0.45049   0.09139   0.00000  Uiso   1.00
C268   C     0.27671   0.43557   0.13161   0.00000  Uiso   1.00
C269   C     0.25591   0.44280   0.16378   0.00000  Uiso   1.00
C270   C     0.22085   0.46426   0.15464   0.00000  Uiso   1.00
C271   C     0.20708   0.47867   0.11444   0.00000  Uiso   1.00
C272   C     0.27233   0.43146   0.20757   0.00000  Uiso   1.00
C273   C     0.27372   0.46200   0.24078   0.00000  Uiso   1.00
C274   C     0.29426   0.45428   0.28106   0.00000  Uiso   1.00
C275   C     0.31293   0.41546   0.28923   0.00000  Uiso   1.00
C276   C     0.30889   0.38346   0.25699   0.00000  Uiso   1.00
C277   C     0.28920   0.39163   0.21628   0.00000  Uiso   1.00
H278   H     0.15451   0.47107   0.03706   0.00000  Uiso   1.00
H279   H     0.12904   0.51151   0.97562   0.00000  Uiso   1.00
H280   H     0.24410   0.55450   0.97064   0.00000  Uiso   1.00
H281   H     0.26989   0.51434   0.03308   0.00000  Uiso   1.00
H282   H     0.28004   0.44521   0.06741   0.00000  Uiso   1.00
H283   H     0.30417   0.41972   0.13797   0.00000  Uiso   1.00
H284   H     0.20434   0.47043   0.17884   0.00000  Uiso   1.00
H285   H     0.18039   0.49602   0.10881   0.00000  Uiso   1.00
H286   H     0.26102   0.49296   0.23501   0.00000  Uiso   1.00
H287   H     0.29736   0.47954   0.30535   0.00000  Uiso   1.00
H288   H     0.32349   0.35345   0.26237   0.00000  Uiso   1.00
H289   H     0.28824   0.36742   0.19130   0.00000  Uiso   1.00
C290   C     0.18624   0.24074   0.44869   0.00000  Uiso   1.00
C291   C     0.21374   0.26183   0.48035   0.00000  Uiso   1.00
C292   C     0.24854   0.27668   0.47171   0.00000  Uiso   1.00
C293   C     0.25604   0.27146   0.43104   0.00000  Uiso   1.00
C294   C     0.22901   0.24912   0.39971   0.00000  Uiso   1.00
C295   C     0.19450   0.23346   0.40860   0.00000  Uiso   1.00
C296   C     0.14794   0.22948   0.45682   0.00000  Uiso   1.00
C297   C     0.13433   0.18707   0.45273   0.00000  Uiso   1.00
C298   C     0.09870   0.17678   0.46269   0.00000  Uiso   1.00
C299   C     0.07573   0.20892   0.47601   0.00000  Uiso   1.00
C300   C     0.08899   0.25160   0.47805   0.00000  Uiso   1.00
C301   C     0.12490   0.26164   0.46918   0.00000  Uiso   1.00
C302   C     0.03941   0.19815   0.49032   0.00000  Uiso   1.00
C303   C     0.02889   0.22269   0.52330   0.00000  Uiso   1.00
C304   C     0.99596   0.21238   0.53831   0.00000  Uiso   1.00
C305   C     0.97304   0.17651   0.52171   0.00000  Uiso   1.00
C306   C     0.98299   0.15190   0.48855   0.00000  Uiso   1.00
C307   C     0.01571   0.16286   0.47270   0.00000  Uiso   1.00
H308   H     0.20785   0.26757   0.51152   0.00000  Uiso   1.00
H309   H     0.26878   0.29396   0.49635   0.00000  Uiso   1.00
H310   H     0.23418   0.24465   0.36812   0.00000  Uiso   1.00
H311   H     0.17351   0.21737   0.38379   0.00000  Uiso   1.00
H312   H     0.15183   0.16185   0.44319   0.00000  Uiso   1.00
H313   H     0.08987   0.14355   0.46130   0.00000  Uiso   1.00
H314   H     0.07183   0.27745   0.48693   0.00000  Uiso   1.00
H315   H     0.13475   0.29464   0.47192   0.00000  Uiso   1.00
H316   H     0.04680   0.24919   0.53876   0.00000  Uiso   1.00
H317   H     0.98938   0.23165   0.56432   0.00000  Uiso   1.00
H318   H     0.96576   0.12406   0.47522   0.00000  Uiso   1.00
H319   H     0.02250   0.14355   0.44688   0.00000  Uiso   1.00
C320   C     1.00163   0.97360   0.71405   0.00000  Uiso   1.00
C321   C     1.00458   0.99148   0.67593   0.00000  Uiso   1.00
C322   C     0.98362   0.02761   0.66251   0.00000  Uiso   1.00
C323   C     0.95911   0.04644   0.68695   0.00000  Uiso   1.00
C324   C     0.95819   0.03021   0.72630   0.00000  Uiso   1.00
C325   C     0.97918   0.99425   0.73972   0.00000  Uiso   1.00
C326   C     1.01924   0.93191   0.72569   0.00000  Uiso   1.00
C327   C     1.03484   0.92425   0.76788   0.00000  Uiso   1.00
C328   C     1.04696   0.88361   0.77955   0.00000  Uiso   1.00
C329   C     1.04385   0.84972   0.74937   0.00000  Uiso   1.00
C330   C     1.03027   0.85758   0.70690   0.00000  Uiso   1.00
C331   C     1.01784   0.89833   0.69517   0.00000  Uiso   1.00
C332   C     0.05212   0.80604   0.76338   0.00000  Uiso   1.00
C333   C     0.07933   0.78074   0.74828   0.00000  Uiso   1.00
C334   C     0.09075   0.74216   0.76680   0.00000  Uiso   1.00
C335   C     0.07483   0.72827   0.80037   0.00000  Uiso   1.00
C336   C     0.04558   0.75243   0.81310   0.00000  Uiso   1.00
C337   C     0.03442   0.79081   0.79483   0.00000  Uiso   1.00
H338   H     1.02220   0.97671   0.65588   0.00000  Uiso   1.00
H339   H     0.98493   0.03921   0.63196   0.00000  Uiso   1.00
H340   H     0.93973   0.04407   0.74593   0.00000  Uiso   1.00
H341   H     0.97604   0.98127   0.76918   0.00000  Uiso   1.00
H342   H     1.03689   0.94946   0.79207   0.00000  Uiso   1.00
H343   H     1.05805   0.87826   0.81242   0.00000  Uiso   1.00
H344   H     1.02760   0.83184   0.68315   0.00000  Uiso   1.00
H345   H     1.00543   0.90301   0.66249   0.00000  Uiso   1.00
H346   H     0.09322   0.79191   0.72387   0.00000  Uiso   1.00
H347   H     0.11347   0.72445   0.75641   0.00000  Uiso   1.00
H348   H     0.03247   0.74285   0.83868   0.00000  Uiso   1.00
H349   H     0.01285   0.80955   0.80634   0.00000  Uiso   1.00
C350   C     0.02248   0.45477   0.79883   0.00000  Uiso   1.00
C351   C     0.02837   0.48278   0.76795   0.00000  Uiso   1.00
C352   C     0.05311   0.51814   0.77856   0.00000  Uiso   1.00
C353   C     0.07145   0.52705   0.82035   0.00000  Uiso   1.00
C354   C     0.06339   0.50142   0.85185   0.00000  Uiso   1.00
C355   C     0.03947   0.46513   0.84115   0.00000  Uiso   1.00
C356   C     1.00247   0.41292   0.78627   0.00000  Uiso   1.00
C357   C     0.98012   0.39333   0.81181   0.00000  Uiso   1.00
C358   C     0.96397   0.35242   0.80079   0.00000  Uiso   1.00
C359   C     0.97043   0.33035   0.76449   0.00000  Uiso   1.00
C360   C     0.99179   0.35022   0.73855   0.00000  Uiso   1.00
C361   C     1.00768   0.39084   0.74932   0.00000  Uiso   1.00
C362   C     0.95511   0.28686   0.75214   0.00000  Uiso   1.00
C363   C     0.91524   0.27940   0.73928   0.00000  Uiso   1.00
C364   C     0.90138   0.24227   0.71531   0.00000  Uiso   1.00
C365   C     0.92733   0.21230   0.70431   0.00000  Uiso   1.00
C366   C     0.96684   0.21755   0.72163   0.00000  Uiso   1.00
C367   C     0.98063   0.25469   0.74518   0.00000  Uiso   1.00
H368   H     0.01467   0.47675   0.73528   0.00000  Uiso   1.00
H369   H     0.05856   0.53818   0.75407   0.00000  Uiso   1.00
H370   H     0.07748   0.50788   0.88436   0.00000  Uiso   1.00
H371   H     0.03591   0.44412   0.86569   0.00000  Uiso   1.00
H372   H     0.97520   0.40966   0.84020   0.00000  Uiso   1.00
H373   H     0.94723   0.33764   0.82099   0.00000  Uiso   1.00
H374   H     0.99638   0.33391   0.70995   0.00000  Uiso   1.00
H375   H     1.02495   0.40445   0.72902   0.00000  Uiso   1.00
H376   H     0.89515   0.30395   0.74432   0.00000  Uiso   1.00
H377   H     0.87075   0.23890   0.70233   0.00000  Uiso   1.00
H378   H     0.98742   0.19473   0.71398   0.00000  Uiso   1.00
H379   H     1.01149   0.25993   0.75506   0.00000  Uiso   1.00
C380   C     0.80188   0.71785   0.05287   0.00000  Uiso   1.00
C381   C     0.80192   0.73174   0.09435   0.00000  Uiso   1.00
C382   C     0.76882   0.74930   0.10476   0.00000  Uiso   1.00
C383   C     0.73503   0.75268   0.07392   0.00000  Uiso   1.00
C384   C     0.73434   0.73617   0.03292   0.00000  Uiso   1.00
C385   C     0.76778   0.71930   0.02233   0.00000  Uiso   1.00
C386   C     0.83851   0.70635   0.04097   0.00000  Uiso   1.00
C387   C     0.85652   0.66815   0.05342   0.00000  Uiso   1.00
C388   C     0.89246   0.65874   1.04395   0.00000  Uiso   1.00
C389   C     0.91110   0.68783   1.02256   0.00000  Uiso   1.00
C390   C     0.89299   0.72623   1.01050   0.00000  Uiso   1.00
C391   C     0.85689   0.73529   0.01945   0.00000  Uiso   1.00
C392   C     0.94860   0.67765   1.01127   0.00000  Uiso   1.00
C393   C     0.97822   0.70883   1.01599   0.00000  Uiso   1.00
C394   C     0.01218   0.70032   1.00158   0.00000  Uiso   1.00
C395   C     0.01683   0.66065   0.98182   0.00000  Uiso   1.00
C396   C     0.98783   0.62899   0.97855   0.00000  Uiso   1.00
C397   C     0.95411   0.63736   0.99325   0.00000  Uiso   1.00
H398   H     0.82819   0.73115   0.11811   0.00000  Uiso   1.00
H399   H     0.77024   0.76203   0.13652   0.00000  Uiso   1.00
H400   H     0.70870   0.73853   0.00859   0.00000  Uiso   1.00
H401   H     0.76747   0.70877  -0.00990   0.00000  Uiso   1.00
H402   H     0.84274   0.64576   0.07045   0.00000  Uiso   1.00
H403   H     0.90592   0.62900   1.05372   0.00000  Uiso   1.00
H404   H     0.90652   0.74897   0.99359   0.00000  Uiso   1.00
H405   H     0.84352   0.76521   0.01020   0.00000  Uiso   1.00
H406   H     0.97473   0.74008   1.03003   0.00000  Uiso   1.00
H407   H     0.03404   0.72526   1.00431   0.00000  Uiso   1.00
H408   H    -0.00941   0.59814   0.96326   0.00000  Uiso   1.00
H409   H     0.93155   0.61299   0.98871   0.00000  Uiso   1.00
C410   C     0.55356   0.72226   0.23545   0.00000  Uiso   1.00
C411   C     0.54586   0.71779   0.19128   0.00000  Uiso   1.00
C412   C     0.55829   0.74892   0.16749   0.00000  Uiso   1.00
C413   C     0.57767   0.78569   0.18723   0.00000  Uiso   1.00
C414   C     0.58379   0.79165   0.23100   0.00000  Uiso   1.00
C415   C     0.57197   0.76002   0.25504   0.00000  Uiso   1.00
C416   C     0.54306   0.68705   0.26047   0.00000  Uiso   1.00
C417   C     0.52947   0.69539   0.29780   0.00000  Uiso   1.00
C418   C     0.51685   0.66189   0.31909   0.00000  Uiso   1.00
C419   C     0.51729   0.61970   0.30315   0.00000  Uiso   1.00
C420   C     0.53226   0.61120   0.26697   0.00000  Uiso   1.00
C421   C     0.54552   0.64440   0.24622   0.00000  Uiso   1.00
C422   C     0.49886   0.58476   0.32133   0.00000  Uiso   1.00
C423   C     0.46836   0.56151   0.29574   0.00000  Uiso   1.00
C424   C     0.45121   0.52733   0.31131   0.00000  Uiso   1.00
C425   C     0.46446   0.51513   0.35269   0.00000  Uiso   1.00
C426   C     0.49478   0.53868   0.37871   0.00000  Uiso   1.00
C427   C     0.51169   0.57366   0.36316   0.00000  Uiso   1.00
H428   H     0.53049   0.68998   0.17498   0.00000  Uiso   1.00
H429   H     0.55315   0.74413   0.13361   0.00000  Uiso   1.00
H430   H     0.59899   0.81989   0.24656   0.00000  Uiso   1.00
H431   H     0.57837   0.76451   0.28892   0.00000  Uiso   1.00
H432   H     0.52720   0.72780   0.30970   0.00000  Uiso   1.00
H433   H     0.50510   0.66901   0.34684   0.00000  Uiso   1.00
H434   H     0.53305   0.57878   0.25434   0.00000  Uiso   1.00
H435   H     0.55722   0.63659   0.21858   0.00000  Uiso   1.00
H436   H     0.45776   0.56992   0.26355   0.00000  Uiso   1.00
H437   H     0.42777   0.50996   0.29059   0.00000  Uiso   1.00
H438   H     0.50525   0.53020   0.41086   0.00000  Uiso   1.00
H439   H     0.53520   0.59147   0.38332   0.00000  Uiso   1.00
loop_
_geom_bond_atom_site_label_1
_geom_bond_atom_site_label_2
_geom_bond_distance
_geom_bond_site_symmetry_2
_ccdc_geom_bond_type
Ce0    O9      2.233   .     S
Ce0    O10     2.302   .     S
Ce0    O11     2.275   .     S
Ce0    O12     2.324   .     S
Ce0    O14     2.297   .     S
Ce0    O15     2.196   .     S
Ce0    O19     2.344   .     S
Ce1    O8      2.356   .     S
Ce1    O9      2.315   .     S
Ce1    O13     2.299   .     S
Ce1    O15     2.246   .     S
Ce1    O16     2.260   .     S
Ce1    O17     2.293   .     S
Ce1    O18     2.302   .     S
C2     O8      1.204   .     D
C2     O9      1.354   .     S
C2     C95     1.475   .     S
C3     O10     1.280   .     A
C3     O11     1.278   .     A
C3     C245    1.481   .     S
C4     O12     1.305   .     A
C4     O13     1.302   .     A
C4     C335    1.484   .     S
C5     O14     1.224   .     D
C5     O15     1.388   .     S
C5     C353    1.462   .     S
C6     O16     1.273   .     A
C6     O17     1.281   .     A
C6     C395    1.474   .     S
C7     O18     1.300   .     A
C7     O19     1.307   .     A
C7     C263    1.477   .     S
Ce20   O29     2.241   .     S
Ce20   O30     2.298   .     S
Ce20   O31     2.275   .     S
Ce20   O32     2.323   .     S
Ce20   O34     2.276   .     S
Ce20   O35     2.249   .     S
Ce20   O39     2.312   .     S
Ce21   O28     2.311   .     S
Ce21   O29     2.283   .     S
Ce21   O33     2.292   .     S
Ce21   O35     2.261   .     S
Ce21   O36     2.275   .     S
Ce21   O37     2.298   .     S
Ce21   O38     2.295   .     S
C22    O28     1.214   .     D
C22    O29     1.377   .     S
C22    C83     1.477   .     S
C23    O30     1.281   .     A
C23    O31     1.278   .     A
C23    C125    1.473   .     S
C24    O32     1.304   .     A
C24    O33     1.300   .     A
C24    C185    1.483   .     S
C25    O34     1.224   .     D
C25    O35     1.396   .     S
C25    C215    1.461   .     S
C26    O36     1.270   .     A
C26    O37     1.275   .     A
C26    C383    1.475   .     S
C27    O38     1.295   .     A
C27    O39     1.297   .     A
C27    C413    1.461   .     S
Ce40   O49     2.243   .     S
Ce40   O50     2.302   .     S
Ce40   O51     2.265   .     S
Ce40   O52     2.340   .     S
Ce40   O54     2.326   .     S
Ce40   O55     2.265   .     S
Ce40   O59     2.334   .     S
Ce41   O48     2.336   .     S
Ce41   O49     2.276   .     S
Ce41   O53     2.310   .     S
Ce41   O55     2.248   .     S
Ce41   O56     2.277   .     S
Ce41   O57     2.274   .     S
Ce41   O58     2.318   .     S
C42    O48     1.204   .     D
C42    O49     1.361   .     S
C42    C203    1.469   .     S
C43    O50     1.277   .     A
C43    O51     1.271   .     A
C43    C305    1.476   .     S
C44    O52     1.305   .     A
C44    O53     1.303   .     A
C44    C323    1.480   .     S
C45    O54     1.206   .     D
C45    O55     1.366   .     S
C45    C365    1.473   .     S
C46    O56     1.277   .     A
C46    O57     1.278   .     A
C46    C173    1.475   .     S
C47    O58     1.305   .     A
C47    O59     1.306   .     A
C47    C143    1.476   .     S
Ce60   O69     2.297   .     S
Ce60   O70     2.315   .     S
Ce60   O71     2.268   .     S
Ce60   O72     2.298   .     S
Ce60   O74     2.299   .     S
Ce60   O75     2.305   .     S
Ce60   O79     2.255   .     S
Ce61   O68     2.287   .     S
Ce61   O69     2.260   .     S
Ce61   O73     2.315   .     S
Ce61   O75     2.288   .     S
Ce61   O76     2.253   .     S
Ce61   O77     2.255   .     S
Ce61   O78     2.435   .     S
C62    O68     1.231   .     D
C62    O69     1.401   .     S
C62    C155    1.475   .     S
C63    O70     1.276   .     A
C63    O71     1.269   .     A
C63    C425    1.477   .     S
C64    O72     1.287   .     A
C64    O73     1.289   .     A
C64    C233    1.488   .     S
C65    O74     1.216   .     D
C65    O75     1.395   .     S
C65    C275    1.473   .     S
C66    O76     1.289   .     A
C66    O77     1.290   .     A
C66    C293    1.475   .     S
C67    O78     1.320   .     A
C67    O79     1.282   .     A
C67    C113    1.476   .     S
C80    C85     1.407   .     A
C80    C86     1.487   .     S
C80    C81     1.406   1_554 A
C81    H98     1.083   .     S
C81    C80     1.406   1_556 A
C81    C82     1.398   1_556 A
C82    C83     1.404   .     A
C82    C81     1.398   1_554 A
C82    H99     1.083   1_554 S
C83    C84     1.403   .     A
C84    C85     1.401   .     A
C84    H100    1.083   .     S
C85    H101    1.083   .     S
C86    C87     1.407   .     A
C86    C91     1.405   1_554 A
C87    C88     1.400   .     A
C87    H102    1.083   .     S
C88    H103    1.083   .     S
C88    C89     1.406   1_554 A
C89    C90     1.405   .     A
C89    C92     1.486   .     S
C89    C88     1.406   1_556 A
C90    C91     1.397   .     A
C90    H104    1.082   .     S
C91    H105    1.082   .     S
C91    C86     1.405   1_556 A
C92    C93     1.405   .     A
C92    C97     1.407   .     A
C93    C94     1.396   .     A
C93    H106    1.083   .     S
C94    C95     1.404   .     A
C94    H107    1.083   .     S
C95    C96     1.403   .     A
C96    C97     1.401   .     A
C96    H108    1.083   .     S
C97    H109    1.082   1_556 S
H99    C82     1.083   1_556 S
H109   C97     1.082   1_554 S
C110   C111    1.403   .     A
C110   C115    1.404   .     A
C110   C116    1.479   .     S
C111   C112    1.396   .     A
C111   H128    1.083   .     S
C112   C113    1.406   .     A
C112   H129    1.083   .     S
C113   C114    1.405   .     A
C114   C115    1.398   .     A
C114   H130    1.082   .     S
C115   H131    1.083   .     S
C116   C117    1.405   .     A
C116   C121    1.404   .     A
C117   C118    1.400   .     A
C117   H132    1.083   .     S
C118   C119    1.404   .     A
C118   H133    1.083   .     S
C119   C120    1.402   .     A
C119   C122    1.477   .     S
C120   C121    1.394   .     A
C120   H134    1.083   .     S
C121   H135    1.083   .     S
C122   C123    1.402   .     A
C122   C127    1.405   .     A
C123   H136    1.083   .     S
C123   C124    1.393   1_545 A
C124   C125    1.404   .     A
C124   H137    1.083   .     S
C124   C123    1.393   1_565 A
C125   C126    1.404   1_565 A
C126   C127    1.402   .     A
C126   H138    1.082   .     S
C126   C125    1.404   1_545 A
C127   H139    1.083   .     S
C140   C141    1.403   .     A
C140   C145    1.407   .     A
C140   C146    1.483   .     S
C141   C142    1.392   .     A
C141   H158    1.083   .     S
C142   C143    1.403   .     A
C142   H159    1.083   .     S
C143   C144    1.405   .     A
C144   C145    1.402   .     A
C144   H160    1.083   .     S
C145   H161    1.083   .     S
C146   C147    1.404   .     A
C146   C151    1.403   .     A
C147   C148    1.397   .     A
C147   H162    1.083   .     S
C148   C149    1.408   .     A
C148   H163    1.082   .     S
C149   C150    1.408   .     A
C149   C152    1.493   .     S
C150   C151    1.398   .     A
C150   H164    1.082   .     S
C151   H165    1.083   .     S
C152   C153    1.408   .     A
C152   C157    1.407   .     A
C153   C154    1.398   .     A
C153   H166    1.081   .     S
C154   C155    1.402   .     A
C154   H167    1.082   .     S
C155   C156    1.401   .     A
C156   C157    1.398   .     A
C156   H168    1.082   .     S
C157   H169    1.081   .     S
C170   C171    1.402   .     A
C170   C175    1.402   .     A
C170   C176    1.473   .     S
C171   C172    1.400   .     A
C171   H188    1.083   .     S
C172   C173    1.407   .     A
C172   H189    1.083   .     S
C173   C174    1.403   .     A
C174   C175    1.394   .     A
C174   H190    1.083   1_545 S
C175   H191    1.083   1_545 S
C176   C181    1.403   .     A
C176   C177    1.400   1_545 A
C177   C178    1.392   .     A
C177   H192    1.083   .     S
C177   C176    1.400   1_565 A
C178   C179    1.406   .     A
C178   H193    1.083   .     S
C179   C182    1.485   .     S
C179   C180    1.408   1_565 A
C180   C181    1.402   .     A
C180   H194    1.083   .     S
C180   C179    1.408   1_545 A
C181   H195    1.083   .     S
C182   C187    1.403   .     A
C182   C183    1.407   1_565 A
C183   H196    1.082   .     S
C183   C182    1.407   1_545 A
C183   C184    1.404   1_546 A
C184   C185    1.407   .     A
C184   C183    1.404   1_564 A
C184   H197    1.082   1_565 S
C185   C186    1.405   .     A
C186   H198    1.083   .     S
C186   C187    1.390   1_554 A
C187   H199    1.082   .     S
C187   C186    1.390   1_556 A
H190   C174    1.083   1_565 S
H191   C175    1.083   1_565 S
H197   C184    1.082   1_545 S
C200   C201    1.403   .     A
C200   C205    1.406   .     A
C200   C206    1.479   .     S
C201   C202    1.398   .     A
C201   H218    1.083   1_545 S
C202   C203    1.404   .     A
C202   H219    1.083   1_545 S
C203   C204    1.401   .     A
C204   C205    1.394   .     A
C204   H220    1.083   .     S
C205   H221    1.083   .     S
C206   C207    1.401   .     A
C206   C211    1.405   1_545 A
C207   C208    1.391   .     A
C207   H222    1.083   .     S
C208   H223    1.082   .     S
C208   C209    1.406   1_545 A
C209   C210    1.407   .     A
C209   C212    1.485   .     S
C209   C208    1.406   1_565 A
C210   C211    1.400   .     A
C210   H224    1.083   .     S
C211   H225    1.083   .     S
C211   C206    1.405   1_565 A
C212   C213    1.408   .     A
C212   C217    1.407   .     A
C213   C214    1.399   .     A
C213   H226    1.082   .     S
C214   C215    1.400   .     A
C214   H227    1.083   .     S
C215   C216    1.399   .     A
C216   C217    1.393   .     A
C216   H228    1.083   1_565 S
C217   H229    1.083   1_565 S
H218   C201    1.083   1_565 S
H219   C202    1.083   1_565 S
H228   C216    1.083   1_545 S
H229   C217    1.083   1_545 S
C230   C231    1.405   .     A
C230   C235    1.405   .     A
C230   C236    1.488   .     S
C231   C232    1.403   .     A
C231   H248    1.083   .     S
C232   C233    1.409   .     A
C232   H249    1.083   .     S
C233   C234    1.407   .     A
C234   C235    1.397   .     A
C234   H250    1.083   .     S
C235   H251    1.083   .     S
C236   C237    1.404   .     A
C236   C241    1.406   .     A
C237   C238    1.395   .     A
C237   H252    1.082   .     S
C238   C239    1.406   .     A
C238   H253    1.082   .     S
C239   C240    1.408   .     A
C239   C242    1.492   .     S
C240   C241    1.404   .     A
C240   H254    1.082   .     S
C241   H255    1.082   .     S
C242   C243    1.409   .     A
C242   C247    1.405   .     A
C243   C244    1.406   .     A
C243   H256    1.082   .     S
C244   C245    1.405   .     A
C244   H257    1.082   .     S
C245   C246    1.403   .     A
C246   C247    1.393   .     A
C246   H258    1.083   .     S
C247   H259    1.082   .     S
C260   C261    1.404   .     A
C260   C265    1.410   .     A
C260   C266    1.489   .     S
C261   H278    1.083   .     S
C261   C262    1.394   1_554 A
C262   C263    1.404   .     A
C262   H279    1.084   .     S
C262   C261    1.394   1_556 A
C263   C264    1.403   .     A
C264   H280    1.083   .     S
C264   C265    1.405   1_556 A
C265   H281    1.083   .     S
C265   C264    1.405   1_554 A
C266   C267    1.405   .     A
C266   C271    1.407   .     A
C267   C268    1.402   .     A
C267   H282    1.082   .     S
C268   C269    1.407   .     A
C268   H283    1.083   .     S
C269   C270    1.403   .     A
C269   C272    1.486   .     S
C270   C271    1.397   .     A
C270   H284    1.083   .     S
C271   H285    1.083   .     S
C272   C273    1.405   .     A
C272   C277    1.406   .     A
C273   C274    1.397   .     A
C273   H286    1.083   .     S
C274   C275    1.402   .     A
C274   H287    1.083   .     S
C275   C276    1.404   .     A
C276   C277    1.402   .     A
C276   H288    1.083   .     S
C277   H289    1.083   .     S
C290   C291    1.403   .     A
C290   C295    1.402   .     A
C290   C296    1.474   .     S
C291   C292    1.396   .     A
C291   H308    1.083   .     S
C292   C293    1.404   .     A
C292   H309    1.083   .     S
C293   C294    1.405   .     A
C294   C295    1.399   .     A
C294   H310    1.083   .     S
C295   H311    1.083   .     S
C296   C297    1.402   .     A
C296   C301    1.400   .     A
C297   C298    1.401   .     A
C297   H312    1.083   .     S
C298   C299    1.409   .     A
C298   H313    1.082   .     S
C299   C300    1.409   .     A
C299   C302    1.492   .     S
C300   C301    1.394   .     A
C300   H314    1.082   .     S
C301   H315    1.083   .     S
C302   C303    1.406   .     A
C302   C307    1.410   .     A
C303   H316    1.082   .     S
C303   C304    1.391   1_455 A
C304   C305    1.402   .     A
C304   H317    1.083   .     S
C304   C303    1.391   1_655 A
C305   C306    1.403   .     A
C306   H318    1.083   .     S
C306   C307    1.404   1_655 A
C307   H319    1.082   .     S
C307   C306    1.404   1_455 A
C320   C321    1.405   .     A
C320   C325    1.406   .     A
C320   C326    1.486   .     S
C321   H338    1.083   .     S
C321   C322    1.399   1_565 A
C322   C323    1.407   .     A
C322   H339    1.082   .     S
C322   C321    1.399   1_545 A
C323   C324    1.404   .     A
C324   H340    1.083   .     S
C324   C325    1.395   1_545 A
C325   H341    1.082   .     S
C325   C324    1.395   1_565 A
C326   C327    1.404   .     A
C326   C331    1.409   .     A
C327   C328    1.394   .     A
C327   H342    1.082   .     S
C328   C329    1.403   .     A
C328   H343    1.083   .     S
C329   C330    1.401   .     A
C329   C332    1.477   1_655 S
C330   C331    1.401   .     A
C330   H344    1.083   .     S
C331   H345    1.082   .     S
C332   C333    1.404   .     A
C332   C337    1.400   .     A
C332   C329    1.477   1_455 S
C333   C334    1.403   .     A
C333   H346    1.083   .     S
C334   C335    1.408   .     A
C334   H347    1.082   .     S
C335   C336    1.407   .     A
C336   C337    1.392   .     A
C336   H348    1.082   .     S
C337   H349    1.083   .     S
C350   C351    1.408   .     A
C350   C355    1.409   .     A
C350   C356    1.487   1_455 S
C351   C352    1.393   .     A
C351   H368    1.083   .     S
C352   C353    1.398   .     A
C352   H369    1.081   .     S
C353   C354    1.401   .     A
C354   C355    1.400   .     A
C354   H370    1.084   .     S
C355   H371    1.083   .     S
C356   C357    1.411   .     A
C356   C361    1.406   .     A
C356   C350    1.487   1_655 S
C357   C358    1.402   .     A
C357   H372    1.082   .     S
C358   C359    1.402   .     A
C358   H373    1.084   .     S
C359   C360    1.401   .     A
C359   C362    1.472   .     S
C360   C361    1.389   .     A
C360   H374    1.084   .     S
C361   H375    1.083   .     S
C362   C363    1.402   .     A
C362   C367    1.403   .     A
C363   C364    1.400   .     A
C363   H376    1.083   .     S
C364   C365    1.406   .     A
C364   H377    1.083   .     S
C365   C366    1.403   .     A
C366   C367    1.394   .     A
C366   H378    1.083   .     S
C367   H379    1.083   .     S
C380   C381    1.399   .     A
C380   C385    1.403   .     A
C380   C386    1.469   .     S
C381   C382    1.395   .     A
C381   H398    1.084   .     S
C382   C383    1.406   .     A
C382   H399    1.083   .     S
C383   C384    1.405   .     A
C384   C385    1.400   .     A
C384   H400    1.083   .     S
C385   H401    1.083   .     S
C386   C387    1.401   .     A
C386   C391    1.401   .     A
C387   H402    1.083   .     S
C387   C388    1.399   1_554 A
C388   C389    1.407   .     A
C388   H403    1.083   .     S
C388   C387    1.399   1_556 A
C389   C390    1.405   .     A
C389   C392    1.480   .     S
C390   H404    1.083   .     S
C390   C391    1.395   1_556 A
C391   H405    1.083   .     S
C391   C390    1.395   1_554 A
C392   C393    1.407   .     A
C392   C397    1.403   .     A
C393   H406    1.083   .     S
C393   C394    1.399   1_655 A
C394   C395    1.402   .     A
C394   H407    1.083   .     S
C394   C393    1.399   1_455 A
C395   C396    1.406   1_455 A
C396   C397    1.395   .     A
C396   C395    1.406   1_655 A
C396   H408    1.084   1_655 S
C397   H409    1.083   .     S
H408   C396    1.084   1_455 S
C410   C411    1.408   .     A
C410   C415    1.409   .     A
C410   C416    1.487   .     S
C411   C412    1.393   .     A
C411   H428    1.082   .     S
C412   C413    1.398   .     A
C412   H429    1.084   .     S
C413   C414    1.400   .     A
C414   C415    1.401   .     A
C414   H430    1.083   .     S
C415   H431    1.082   .     S
C416   C417    1.408   .     A
C416   C421    1.407   .     A
C417   C418    1.401   .     A
C417   H432    1.082   .     S
C418   C419    1.402   .     A
C418   H433    1.083   .     S
C419   C420    1.401   .     A
C419   C422    1.474   .     S
C420   C421    1.392   .     A
C420   H434    1.083   .     S
C421   H435    1.082   .     S
C422   C423    1.399   .     A
C422   C427    1.405   .     A
C423   C424    1.390   .     A
C423   H436    1.084   .     S
C424   C425    1.404   .     A
C424   H437    1.083   .     S
C425   C426    1.406   .     A
C426   C427    1.405   .     A
C426   H438    1.082   .     S
C427   H439    1.083   .     S
