data_lcy+N155+E225
_audit_creation_date              2025-01-21
_audit_creation_method            'Materials Studio'
_symmetry_space_group_name_H-M    'P1'
_symmetry_Int_Tables_number       1
_symmetry_cell_setting            triclinic
loop_
_symmetry_equiv_pos_as_xyz
  x,y,z
_cell_length_a                    32.3835
_cell_length_b                    32.3663
_cell_length_c                    32.9035
_cell_angle_alpha                 91.3028
_cell_angle_beta                  98.3096
_cell_angle_gamma                 96.4601
loop_
_atom_site_label
_atom_site_type_symbol
_atom_site_fract_x
_atom_site_fract_y
_atom_site_fract_z
_atom_site_U_iso_or_equiv
_atom_site_adp_type
_atom_site_occupancy
C0     C     0.19778   0.59473   0.81899   0.00000  Uiso   1.00
Ho1    Ho    0.14825   0.61412   0.86941   0.00000  Uiso   1.00
C2     C     0.02164   0.64049   0.96739   0.00000  Uiso   1.00
Ho3    Ho    0.08231   0.63024   0.92570   0.00000  Uiso   1.00
O4     O     0.15808   0.58524   0.81222   0.00000  Uiso   1.00
O5     O     0.21146   0.61532   0.85292   0.00000  Uiso   1.00
O6     O     0.12205   0.54837   0.87547   0.00000  Uiso   1.00
O7     O     0.08236   0.59658   0.86808   0.00000  Uiso   1.00
C8     C     0.08555   0.55496   0.87147   0.00000  Uiso   1.00
C9     C     0.15379   0.68436   0.93359   0.00000  Uiso   1.00
O10    O     0.16199   0.56828   0.91874   0.00000  Uiso   1.00
O11    O     0.11508   0.58366   0.96273   0.00000  Uiso   1.00
O12    O     0.05948   0.65699   0.97891   0.00000  Uiso   1.00
O13    O     0.01682   0.61895   0.93385   0.00000  Uiso   1.00
O14    O     0.11956   0.69402   0.93595   0.00000  Uiso   1.00
O15    O     0.15043   0.64276   0.92905   0.00000  Uiso   1.00
O16    O     0.06891   0.67533   0.87741   0.00000  Uiso   1.00
O17    O     0.12299   0.66872   0.83940   0.00000  Uiso   1.00
C18    C     0.09024   0.68580   0.84765   0.00000  Uiso   1.00
C19    C     0.14688   0.56541   0.95378   0.00000  Uiso   1.00
C20    C     0.58838   0.79257   0.18235   0.00000  Uiso   1.00
Ho21   Ho    0.61348   0.85202   0.13698   0.00000  Uiso   1.00
C22    C     0.67860   0.96346   0.03425   0.00000  Uiso   1.00
Ho23   Ho    0.64594   0.91305   0.08374   0.00000  Uiso   1.00
O24    O     0.57032   0.79708   0.14564   0.00000  Uiso   1.00
O25    O     0.61737   0.82188   0.19594   0.00000  Uiso   1.00
O26    O     0.56242   0.81042   0.10294   0.00000  Uiso   1.00
O27    O     0.59418   0.86270   0.07275   0.00000  Uiso   1.00
C28    C     0.56262   0.82878   0.07068   0.00000  Uiso   1.00
C29    C     0.69379   0.93513   0.15356   0.00000  Uiso   1.00
O30    O     0.57220   0.90080   0.14737   0.00000  Uiso   1.00
O31    O     0.59888   0.94863   0.10392   0.00000  Uiso   1.00
O32    O     0.69151   0.96567   0.07311   0.00000  Uiso   1.00
O33    O     0.64656   0.93692   0.02305   0.00000  Uiso   1.00
O34    O     0.69776   0.95422   0.12207   0.00000  Uiso   1.00
O35    O     0.66217   0.90244   0.14695   0.00000  Uiso   1.00
O36    O     0.68813   0.86653   0.07507   0.00000  Uiso   1.00
O37    O     0.66148   0.81661   0.11576   0.00000  Uiso   1.00
C38    C     0.68833   0.83099   0.09231   0.00000  Uiso   1.00
C39    C     0.57370   0.93688   0.12999   0.00000  Uiso   1.00
C40    C     0.79573   0.20574   0.57406   0.00000  Uiso   1.00
Ho41   Ho    0.85522   0.16308   0.60458   0.00000  Uiso   1.00
C42    C     0.96626   0.05422   0.67193   0.00000  Uiso   1.00
Ho43   Ho    0.91608   0.10657   0.64167   0.00000  Uiso   1.00
O44    O     0.79770   0.16792   0.56297   0.00000  Uiso   1.00
O45    O     0.82703   0.22166   0.60026   0.00000  Uiso   1.00
O46    O     0.81176   0.12733   0.55598   0.00000  Uiso   1.00
O47    O     0.86505   0.10112   0.59021   0.00000  Uiso   1.00
C48    C     0.83238   0.09744   0.55711   0.00000  Uiso   1.00
C49    C     0.91621   0.17802   0.68683   0.00000  Uiso   1.00
O50    O     0.90340   0.17630   0.56358   0.00000  Uiso   1.00
O51    O     0.95315   0.13746   0.59767   0.00000  Uiso   1.00
O52    O     0.97047   0.09229   0.68443   0.00000  Uiso   1.00
O53    O     0.93540   0.04433   0.64354   0.00000  Uiso   1.00
O54    O     0.92394   0.14545   0.70109   0.00000  Uiso   1.00
O55    O     0.91193   0.17351   0.64583   0.00000  Uiso   1.00
O56    O     0.86488   0.08893   0.67736   0.00000  Uiso   1.00
O57    O     0.82113   0.13694   0.65361   0.00000  Uiso   1.00
C58    C     0.83142   0.10743   0.67791   0.00000  Uiso   1.00
C59    C     0.94071   0.16319   0.56948   0.00000  Uiso   1.00
C60    C     0.39880   0.27449   0.30492   0.00000  Uiso   1.00
Ho61   Ho    0.37010   0.33082   0.34683   0.00000  Uiso   1.00
C62    C     0.31744   0.43868   0.45474   0.00000  Uiso   1.00
Ho63   Ho    0.34168   0.38886   0.40237   0.00000  Uiso   1.00
O64    O     0.41482   0.28629   0.34168   0.00000  Uiso   1.00
O65    O     0.36998   0.29576   0.28895   0.00000  Uiso   1.00
O66    O     0.43014   0.31637   0.38036   0.00000  Uiso   1.00
O67    O     0.38538   0.34387   0.41209   0.00000  Uiso   1.00
C68    C     0.42631   0.33527   0.41205   0.00000  Uiso   1.00
C69    C     0.30240   0.40344   0.32992   0.00000  Uiso   1.00
O70    O     0.40902   0.38801   0.33244   0.00000  Uiso   1.00
O71    O     0.39210   0.43069   0.38235   0.00000  Uiso   1.00
O72    O     0.30091   0.43544   0.41681   0.00000  Uiso   1.00
O73    O     0.34805   0.41740   0.46331   0.00000  Uiso   1.00
O74    O     0.30243   0.42589   0.36041   0.00000  Uiso   1.00
O75    O     0.31708   0.36603   0.34038   0.00000  Uiso   1.00
O76    O     0.29682   0.33475   0.41066   0.00000  Uiso   1.00
O77    O     0.32522   0.28621   0.37317   0.00000  Uiso   1.00
C78    C     0.29838   0.29703   0.39643   0.00000  Uiso   1.00
C79    C     0.41285   0.42351   0.35266   0.00000  Uiso   1.00
C80    C     0.53034   0.81691   0.03510   0.00000  Uiso   1.00
C81    C     0.50801   0.84714   0.01510   0.00000  Uiso   1.00
C82    C     0.47146   0.83504  -0.01279   0.00000  Uiso   1.00
C83    C     0.45732   0.79256  -0.02120   0.00000  Uiso   1.00
C84    C     0.48134   0.76261  -0.00327   0.00000  Uiso   1.00
C85    C     0.51720   0.77462   0.02529   0.00000  Uiso   1.00
C86    C     0.38389   0.79372  -0.03471   0.00000  Uiso   1.00
H87    H     0.23127   0.66108   0.93460   0.00000  Uiso   1.00
H88    H     0.29848   0.70418   0.94785   0.00000  Uiso   1.00
H89    H     0.23488   0.81316   0.95906   0.00000  Uiso   1.00
H90    H     0.16670   0.76915   0.94683   0.00000  Uiso   1.00
H91    H     0.34309   0.75293   0.92377   0.00000  Uiso   1.00
O92    O     0.30993   0.78919   0.96239   0.00000  Uiso   1.00
O93    O     0.41962   0.77920  -0.04705   0.00000  Uiso   1.00
C94    C     0.19383   0.71195   0.93901   0.00000  Uiso   1.00
C95    C     0.23155   0.69438   0.93911   0.00000  Uiso   1.00
C96    C     0.27019   0.71930   0.94623   0.00000  Uiso   1.00
C97    C     0.27188   0.76274   0.95268   0.00000  Uiso   1.00
C98    C     0.23411   0.78006   0.95301   0.00000  Uiso   1.00
C99    C     0.19534   0.75501   0.94607   0.00000  Uiso   1.00
C100   C     0.34570   0.77663   0.94823   0.00000  Uiso   1.00
H101   H     0.45361   0.85859  -0.02700   0.00000  Uiso   1.00
H102   H     0.47106   0.72985  -0.00997   0.00000  Uiso   1.00
H103   H     0.51735   0.87987   0.02297   0.00000  Uiso   1.00
H104   H     0.38658   0.81690  -0.00970   0.00000  Uiso   1.00
H105   H     0.53400   0.75091   0.04071   0.00000  Uiso   1.00
C106   C     0.40867   0.23593   0.28607   0.00000  Uiso   1.00
C107   C     0.42285   0.23466   0.24785   0.00000  Uiso   1.00
C108   C     0.43169   0.19678   0.23131   0.00000  Uiso   1.00
C109   C     0.42611   0.15975   0.25300   0.00000  Uiso   1.00
C110   C     0.41067   0.16141   0.29043   0.00000  Uiso   1.00
C111   C     0.40267   0.19910   0.30716   0.00000  Uiso   1.00
C112   C     0.46509   0.11836   0.21424   0.00000  Uiso   1.00
H113   H     0.54614   0.95124   0.20381   0.00000  Uiso   1.00
H114   H     0.51728   0.01450   0.22419   0.00000  Uiso   1.00
H115   H     0.51464   0.05765   0.10116   0.00000  Uiso   1.00
H116   H     0.54266   0.99487   0.08040   0.00000  Uiso   1.00
H117   H     0.45448   0.05321   0.20775   0.00000  Uiso   1.00
O118   O     0.50421   0.08006   0.17518   0.00000  Uiso   1.00
O119   O     0.43272   0.12032   0.23802   0.00000  Uiso   1.00
C120   C     0.54677   0.96825   0.14060   0.00000  Uiso   1.00
C121   C     0.53776   0.97346   0.18080   0.00000  Uiso   1.00
C122   C     0.52130   1.00956   0.19243   0.00000  Uiso   1.00
C123   C     0.51334   0.04049   0.16375   0.00000  Uiso   1.00
C124   C     0.52025   0.03398   0.12335   0.00000  Uiso   1.00
C125   C     0.53628   0.99813   0.11169   0.00000  Uiso   1.00
C126   C     0.47314   0.08142   0.20049   0.00000  Uiso   1.00
H127   H     0.44195   0.19652   0.20146   0.00000  Uiso   1.00
H128   H     0.40503   0.13317   0.30681   0.00000  Uiso   1.00
H129   H     0.42741   0.26288   0.23119   0.00000  Uiso   1.00
H130   H     0.48470   0.14607   0.20749   0.00000  Uiso   1.00
H131   H     0.39084   0.19939   0.33633   0.00000  Uiso   1.00
C132   C     0.75909   0.22706   0.55866   0.00000  Uiso   1.00
C133   C     0.76208   0.27035   0.55424   0.00000  Uiso   1.00
C134   C     0.72674   0.28872   0.53676   0.00000  Uiso   1.00
C135   C     0.68834   0.26394   0.52417   0.00000  Uiso   1.00
C136   C     0.68525   0.22114   0.52956   0.00000  Uiso   1.00
C137   C     0.72024   0.20283   0.54676   0.00000  Uiso   1.00
C138   C     0.63512   0.30842   0.52242   0.00000  Uiso   1.00
H139   H     0.44963   0.27609   0.46363   0.00000  Uiso   1.00
H140   H     0.51474   0.28004   0.51305   0.00000  Uiso   1.00
H141   H     0.54360   0.40918   0.48794   0.00000  Uiso   1.00
H142   H     0.47800   0.40546   0.43850   0.00000  Uiso   1.00
H143   H     0.58468   0.30223   0.47526   0.00000  Uiso   1.00
O144   O     0.57497   0.34469   0.52422   0.00000  Uiso   1.00
O145   O     0.65446   0.27986   0.50130   0.00000  Uiso   1.00
C146   C     0.45939   0.34046   0.44763   0.00000  Uiso   1.00
C147   C     0.46933   0.30555   0.46966   0.00000  Uiso   1.00
C148   C     0.50629   0.30774   0.49764   0.00000  Uiso   1.00
C149   C     0.53413   0.34468   0.50316   0.00000  Uiso   1.00
C150   C     0.52246   0.38052   0.48366   0.00000  Uiso   1.00
C151   C     0.48524   0.37838   0.45569   0.00000  Uiso   1.00
C152   C     0.59767   0.31743   0.50499   0.00000  Uiso   1.00
H153   H     0.72943   0.32177   0.53151   0.00000  Uiso   1.00
H154   H     0.65569   0.20196   0.51965   0.00000  Uiso   1.00
H155   H     0.79188   0.28953   0.56254   0.00000  Uiso   1.00
H156   H     0.64902   0.32169   0.55264   0.00000  Uiso   1.00
H157   H     0.71703   0.16949   0.55033   0.00000  Uiso   1.00
C158   C     0.80470   0.09536   0.70967   0.00000  Uiso   1.00
C159   C     0.80992   0.05892   0.73143   0.00000  Uiso   1.00
C160   C     0.78825   0.04984   0.76453   0.00000  Uiso   1.00
C161   C     0.76124   0.07729   0.77678   0.00000  Uiso   1.00
C162   C     0.75429   0.11236   0.75383   0.00000  Uiso   1.00
C163   C     0.77599   0.12159   0.72073   0.00000  Uiso   1.00
C164   C     0.76366   0.05801   0.84615   0.00000  Uiso   1.00
H165   H     0.69985   0.04755   1.02650   0.00000  Uiso   1.00
H166   H     0.73907   0.07987   0.97359   0.00000  Uiso   1.00
H167   H     0.74881   0.95852   0.92242   0.00000  Uiso   1.00
H168   H     0.70886   0.92622   0.97385   0.00000  Uiso   1.00
H169   H     0.71150   0.04863   0.87710   0.00000  Uiso   1.00
O170   O     0.76992   1.03896   0.91548   0.00000  Uiso   1.00
O171   O     0.73943   0.06962   0.81023   0.00000  Uiso   1.00
C172   C     0.70160   0.98458   1.00387   0.00000  Uiso   1.00
C173   C     0.71050   1.02801   1.00391   0.00000  Uiso   1.00
C174   C     0.73252   0.04634   0.97388   0.00000  Uiso   1.00
C175   C     0.74616   1.02131   0.94425   0.00000  Uiso   1.00
C176   C     0.73771   0.97804   0.94471   0.00000  Uiso   1.00
C177   C     0.71512   0.95983   0.97398   0.00000  Uiso   1.00
C178   C     0.74535   0.04857   0.87905   0.00000  Uiso   1.00
H179   H     0.79251   1.02145   0.78057   0.00000  Uiso   1.00
H180   H     0.73276   0.13313   0.76247   0.00000  Uiso   1.00
H181   H     0.83107   0.03757   0.72312   0.00000  Uiso   1.00
H182   H     0.79745   1.05751   0.84818   0.00000  Uiso   1.00
H183   H     0.77118   0.14987   0.70461   0.00000  Uiso   1.00
C184   C     0.82800   0.06781   0.52192   0.00000  Uiso   1.00
C185   C     0.79279   0.06652   0.49131   0.00000  Uiso   1.00
C186   C     0.79371   1.04951   0.45213   0.00000  Uiso   1.00
C187   C     0.82986   0.03286   0.44288   0.00000  Uiso   1.00
C188   C     0.86424   0.03247   0.47403   0.00000  Uiso   1.00
C189   C     0.86315   0.04923   0.51343   0.00000  Uiso   1.00
C190   C     0.79743   0.99818   0.38046   0.00000  Uiso   1.00
H191   H     0.74113   1.00860   0.18723   0.00000  Uiso   1.00
H192   H     0.76876   1.02259   0.26097   0.00000  Uiso   1.00
H193   H     0.72656   0.89614   0.28601   0.00000  Uiso   1.00
H194   H     0.69975   0.88180   0.21367   0.00000  Uiso   1.00
H195   H     0.81690   1.00493   0.32221   0.00000  Uiso   1.00
O196   O     0.75641   0.96742   0.32132   0.00000  Uiso   1.00
O197   O     0.83385   0.02015   0.40253   0.00000  Uiso   1.00
C198   C     0.71825   0.94416   0.19481   0.00000  Uiso   1.00
C199   C     0.73929   0.98352   0.20835   0.00000  Uiso   1.00
C200   C     0.75513   0.99147   0.25033   0.00000  Uiso   1.00
C201   C     0.75015   0.95989   0.27871   0.00000  Uiso   1.00
C202   C     0.73112   0.92046   0.26448   0.00000  Uiso   1.00
C203   C     0.71572   0.91248   0.22315   0.00000  Uiso   1.00
C204   C     0.79273   0.99222   0.33973   0.00000  Uiso   1.00
H205   H     0.76703   1.05130   0.42849   0.00000  Uiso   1.00
H206   H     0.89245   0.02033   0.46735   0.00000  Uiso   1.00
H207   H     0.76557   1.08129   0.49694   0.00000  Uiso   1.00
H208   H     0.77238   0.98458   0.39652   0.00000  Uiso   1.00
H209   H     0.89100   0.05066   0.53627   0.00000  Uiso   1.00
C210   C     0.30174   0.46223   0.48702   0.00000  Uiso   1.00
C211   C     0.31021   0.45035   0.52787   0.00000  Uiso   1.00
C212   C     0.29507   0.47093   0.55930   0.00000  Uiso   1.00
C213   C     0.27230   0.50516   0.55081   0.00000  Uiso   1.00
C214   C     0.26300   0.51633   0.50979   0.00000  Uiso   1.00
C215   C     0.27750   0.49504   0.47802   0.00000  Uiso   1.00
C216   C     0.27859   0.52808   0.62158   0.00000  Uiso   1.00
H217   H     0.22304   0.63910   0.75656   0.00000  Uiso   1.00
H218   H     0.25792   0.61371   0.70061   0.00000  Uiso   1.00
H219   H     0.26531   0.49636   0.75869   0.00000  Uiso   1.00
H220   H     0.22969   0.52141   0.81430   0.00000  Uiso   1.00
H221   H     0.22905   0.54791   0.64860   0.00000  Uiso   1.00
O222   O     0.28275   0.53744   0.69365   0.00000  Uiso   1.00
O223   O     0.25617   0.52693   0.58150   0.00000  Uiso   1.00
C224   C     0.22449   0.58226   0.78963   0.00000  Uiso   1.00
C225   C     0.23262   0.60809   0.75741   0.00000  Uiso   1.00
C226   C     0.25187   0.59348   0.72536   0.00000  Uiso   1.00
C227   C     0.26300   0.55273   0.72514   0.00000  Uiso   1.00
C228   C     0.25635   0.52760   0.75825   0.00000  Uiso   1.00
C229   C     0.23654   0.54199   0.79000   0.00000  Uiso   1.00
C230   C     0.26092   0.53940   0.65371   0.00000  Uiso   1.00
H231   H     0.30072   0.45943   0.58998   0.00000  Uiso   1.00
H232   H     0.24462   0.54182   0.50253   0.00000  Uiso   1.00
H233   H     0.32785   0.42433   0.53543   0.00000  Uiso   1.00
H234   H     0.31058   0.52004   0.62722   0.00000  Uiso   1.00
H235   H     0.27023   0.50445   0.44666   0.00000  Uiso   1.00
C236   C     0.17047   0.54434   0.98672   0.00000  Uiso   1.00
C237   C     0.16457   0.50113   0.99044   0.00000  Uiso   1.00
C238   C     0.18931   0.48261   0.02191   0.00000  Uiso   1.00
C239   C     0.21988   0.50741   0.04983   0.00000  Uiso   1.00
C240   C     0.22625   0.55029   0.04492   0.00000  Uiso   1.00
C241   C     0.20143   0.56870   1.01395   0.00000  Uiso   1.00
C242   C     0.22395   0.46435   0.10713   0.00000  Uiso   1.00
H243   H     0.27383   0.47560   0.30166   0.00000  Uiso   1.00
H244   H     0.23996   0.48751   0.23142   0.00000  Uiso   1.00
H245   H     0.25186   0.36164   0.19449   0.00000  Uiso   1.00
H246   H     0.28652   0.34957   0.26393   0.00000  Uiso   1.00
H247   H     0.27616   0.46801   0.15345   0.00000  Uiso   1.00
O248   O     0.22137   0.43018   0.16938   0.00000  Uiso   1.00
O249   O     0.24541   0.49074   0.08195   0.00000  Uiso   1.00
C250   C     0.28289   0.41176   0.28803   0.00000  Uiso   1.00
C251   C     0.26964   0.45070   0.27836   0.00000  Uiso   1.00
C252   C     0.25047   0.45754   0.23849   0.00000  Uiso   1.00
C253   C     0.24400   0.42534   0.20811   0.00000  Uiso   1.00
C254   C     0.25708   0.38661   0.21776   0.00000  Uiso   1.00
C255   C     0.27676   0.37992   0.25728   0.00000  Uiso   1.00
C256   C     0.24349   0.45538   0.14381   0.00000  Uiso   1.00
H257   H     0.18505   0.44913   0.02415   0.00000  Uiso   1.00
H258   H     0.25021   0.56951   0.06561   0.00000  Uiso   1.00
H259   H     0.14115   0.48198   0.96908   0.00000  Uiso   1.00
H260   H     0.19099   0.45253   0.09835   0.00000  Uiso   1.00
H261   H     0.20668   0.60208   1.01096   0.00000  Uiso   1.00
C262   C     0.26652   0.26519   0.40699   0.00000  Uiso   1.00
C263   C     0.22521   0.26404   0.38696   0.00000  Uiso   1.00
C264   C     0.19249   0.24089   0.40252   0.00000  Uiso   1.00
C265   C     0.20071   0.21937   0.43901   0.00000  Uiso   1.00
C266   C     0.24244   0.21798   0.45703   0.00000  Uiso   1.00
C267   C     0.27531   0.24107   0.44131   0.00000  Uiso   1.00
C268   C     0.13355   0.22168   0.45893   0.00000  Uiso   1.00
H269   H     0.02502   0.16415   0.58747   0.00000  Uiso   1.00
H270   H     0.07851   0.19184   0.54781   0.00000  Uiso   1.00
H271   H     0.98297   0.22764   0.45439   0.00000  Uiso   1.00
H272   H     0.92834   0.20038   0.49489   0.00000  Uiso   1.00
H273   H     0.09943   0.17261   0.48400   0.00000  Uiso   1.00
O274   O     0.06474   0.22626   0.47321   0.00000  Uiso   1.00
O275   O     0.16832   0.19946   0.45813   0.00000  Uiso   1.00
C276   C     0.97235   0.17939   0.54394   0.00000  Uiso   1.00
C277   C     0.01512   0.17721   0.55812   0.00000  Uiso   1.00
C278   C     0.04586   0.19271   0.53521   0.00000  Uiso   1.00
C279   C     0.03451   0.20989   0.49691   0.00000  Uiso   1.00
C280   C     0.99201   0.21331   0.48324   0.00000  Uiso   1.00
C281   C     0.96101   0.19797   0.50642   0.00000  Uiso   1.00
C282   C     0.09970   0.20418   0.47327   0.00000  Uiso   1.00
H283   H     0.16067   0.24107   0.38699   0.00000  Uiso   1.00
H284   H     0.24919   0.20092   0.48466   0.00000  Uiso   1.00
H285   H     0.21814   0.28258   0.36038   0.00000  Uiso   1.00
H286   H     0.13389   0.25353   0.44894   0.00000  Uiso   1.00
H287   H     0.30713   0.24200   0.45724   0.00000  Uiso   1.00
C288   C     0.99389   0.02396   0.68869   0.00000  Uiso   1.00
C289   C     0.98929   1.00676   0.72668   0.00000  Uiso   1.00
C290   C     1.01266   0.97478   0.74076   0.00000  Uiso   1.00
C291   C     1.04112   0.95993   0.71705   0.00000  Uiso   1.00
C292   C     1.04682   0.97836   0.67983   0.00000  Uiso   1.00
C293   C     1.02276   1.00974   0.66534   0.00000  Uiso   1.00
C294   C     0.03944   0.89051   0.73639   0.00000  Uiso   1.00
H295   H     0.13765   0.74445   0.80961   0.00000  Uiso   1.00
H296   H     0.11350   0.80318   0.77163   0.00000  Uiso   1.00
H297   H    -0.01371   0.76347   0.79081   0.00000  Uiso   1.00
H298   H     0.01034   0.70412   0.82820   0.00000  Uiso   1.00
H299   H     0.08979   0.86340   0.76749   0.00000  Uiso   1.00
O300   O     0.03055   0.82234   0.75966   0.00000  Uiso   1.00
O301   O     0.06444   0.92761   0.73055   0.00000  Uiso   1.00
C302   C     0.07597   0.72005   0.82231   0.00000  Uiso   1.00
C303   C     0.10452   0.74833   0.80559   0.00000  Uiso   1.00
C304   C     0.09060   0.78262   0.78458   0.00000  Uiso   1.00
C305   C     0.04771   0.78911   0.78020   0.00000  Uiso   1.00
C306   C     0.01941   0.75969   0.79527   0.00000  Uiso   1.00
C307   C     0.03324   0.72583   0.81642   0.00000  Uiso   1.00
C308   C     0.05663   0.85910   0.75513   0.00000  Uiso   1.00
H309   H     1.00854   0.96141   0.76998   0.00000  Uiso   1.00
H310   H     0.06910   0.96763   0.66163   0.00000  Uiso   1.00
H311   H     0.96689   0.01737   0.74486   0.00000  Uiso   1.00
H312   H     1.00580   0.88662   0.72521   0.00000  Uiso   1.00
H313   H     1.02642   0.02277   0.63586   0.00000  Uiso   1.00
C314   C     0.04991   0.52237   0.86608   0.00000  Uiso   1.00
C315   C     0.02470   0.51641   0.82761   0.00000  Uiso   1.00
C316   C    -0.00564   0.48189   0.81973   0.00000  Uiso   1.00
C317   C    -0.01121   0.45306   0.85047   0.00000  Uiso   1.00
C318   C     1.01162   0.46109   0.88990   0.00000  Uiso   1.00
C319   C     0.04268   0.49526   0.89756   0.00000  Uiso   1.00
C320   C     0.97616   0.39191   0.80956   0.00000  Uiso   1.00
H321   H     0.92412   0.19735   0.77030   0.00000  Uiso   1.00
H322   H     0.94753   0.26717   0.80344   0.00000  Uiso   1.00
H323   H     0.94771   0.31942   0.68440   0.00000  Uiso   1.00
H324   H     0.92329   0.25132   0.65136   0.00000  Uiso   1.00
H325   H     0.92796   0.34200   0.80755   0.00000  Uiso   1.00
O326   O     0.97001   0.33636   0.76213   0.00000  Uiso   1.00
O327   O     0.96353   0.41487   0.84138   0.00000  Uiso   1.00
C328   C     0.92179   0.21907   0.70841   0.00000  Uiso   1.00
C329   C     0.92775   0.22413   0.75145   0.00000  Uiso   1.00
C330   C     0.94088   0.26384   0.77025   0.00000  Uiso   1.00
C331   C     0.94846   0.29839   0.74591   0.00000  Uiso   1.00
C332   C     0.94095   0.29321   0.70325   0.00000  Uiso   1.00
C333   C     0.92702   0.25424   0.68460   0.00000  Uiso   1.00
C334   C     0.95564   0.35531   0.79517   0.00000  Uiso   1.00
H335   H    -0.02333   0.47640   0.78916   0.00000  Uiso   1.00
H336   H     1.00695   0.43948   0.91389   0.00000  Uiso   1.00
H337   H     0.03020   0.53718   0.80304   0.00000  Uiso   1.00
H338   H     1.00362   0.40360   0.79578   0.00000  Uiso   1.00
H339   H     0.06164   0.50006   0.92759   0.00000  Uiso   1.00
C340   C     0.72383   0.80804   0.08724   0.00000  Uiso   1.00
C341   C     0.71900   0.77085   0.06342   0.00000  Uiso   1.00
C342   C     0.75466   0.75339   0.05453   0.00000  Uiso   1.00
C343   C     0.79524   0.77298   0.06994   0.00000  Uiso   1.00
C344   C     0.79948   0.80950   0.09436   0.00000  Uiso   1.00
C345   C     0.76418   0.82682   0.10309   0.00000  Uiso   1.00
C346   C     0.83647   0.71830   0.05694   0.00000  Uiso   1.00
H347   H     0.01895   0.69576   1.03089   0.00000  Uiso   1.00
H348   H     0.95796   0.70605   0.06495   0.00000  Uiso   1.00
H349   H     0.88344   0.60695   0.98856   0.00000  Uiso   1.00
H350   H     0.94414   0.59649   0.95443   0.00000  Uiso   1.00
H351   H     0.89338   0.73116   0.03500   0.00000  Uiso   1.00
O352   O     0.87905   0.66512   1.04429   0.00000  Uiso   1.00
O353   O     0.83184   0.76081   0.05760   0.00000  Uiso   1.00
C354   C    -0.01387   0.64558   0.98992   0.00000  Uiso   1.00
C355   C    -0.01039   0.67603   1.02166   0.00000  Uiso   1.00
C356   C     0.95470   0.68214   1.04077   0.00000  Uiso   1.00
C357   C     0.91565   0.65804   1.02810   0.00000  Uiso   1.00
C358   C     0.91298   0.62624   0.99805   0.00000  Uiso   1.00
C359   C     0.94765   0.62039   0.97868   0.00000  Uiso   1.00
C360   C     0.87142   0.70697   0.04510   0.00000  Uiso   1.00
H361   H     0.75057   0.72606   0.03414   0.00000  Uiso   1.00
H362   H     0.83044   0.82515   0.10584   0.00000  Uiso   1.00
H363   H     0.68793   0.75661   0.05019   0.00000  Uiso   1.00
H364   H     0.81334   0.69520   0.06694   0.00000  Uiso   1.00
H365   H     0.76828   0.85568   0.12138   0.00000  Uiso   1.00
C366   C     0.58053   0.75374   0.20363   0.00000  Uiso   1.00
C367   C     0.54016   0.73934   0.21174   0.00000  Uiso   1.00
C368   C     0.53147   0.69862   0.22436   0.00000  Uiso   1.00
C369   C     0.56289   0.67156   0.22810   0.00000  Uiso   1.00
C370   C     0.60307   0.68617   0.21994   0.00000  Uiso   1.00
C371   C     0.61209   0.72716   0.20854   0.00000  Uiso   1.00
C372   C     0.53179   0.62102   0.26900   0.00000  Uiso   1.00
H373   H     0.43098   0.44420   0.27619   0.00000  Uiso   1.00
H374   H     0.46808   0.51001   0.25819   0.00000  Uiso   1.00
H375   H     0.49580   0.54846   0.38647   0.00000  Uiso   1.00
H376   H     0.45815   0.48318   0.40445   0.00000  Uiso   1.00
H377   H     0.52781   0.55628   0.25956   0.00000  Uiso   1.00
O378   O     0.50152   0.57492   0.31359   0.00000  Uiso   1.00
O379   O     0.55423   0.62926   0.23612   0.00000  Uiso   1.00
C380   C     0.44170   0.45876   0.34165   0.00000  Uiso   1.00
C381   C     0.44621   0.46624   0.30052   0.00000  Uiso   1.00
C382   C     0.46762   0.50391   0.29031   0.00000  Uiso   1.00
C383   C     0.48544   0.53417   0.32142   0.00000  Uiso   1.00
C384   C     0.48250   0.52545   0.36236   0.00000  Uiso   1.00
C385   C     0.46099   0.48827   0.37248   0.00000  Uiso   1.00
C386   C     0.52035   0.58181   0.27820   0.00000  Uiso   1.00
H387   H     0.49988   0.68757   0.22940   0.00000  Uiso   1.00
H388   H     0.62717   0.66537   0.22158   0.00000  Uiso   1.00
H389   H     0.51520   0.75916   0.20718   0.00000  Uiso   1.00
H390   H     0.52510   0.64624   0.28859   0.00000  Uiso   1.00
H391   H     0.64301   0.73733   0.20096   0.00000  Uiso   1.00
loop_
_geom_bond_atom_site_label_1
_geom_bond_atom_site_label_2
_geom_bond_distance
_geom_bond_site_symmetry_2
_ccdc_geom_bond_type
C0     O4      1.273   .     A
C0     O5      1.282   .     A
C0     C224    1.465   .     S
Ho1    O4      2.162   .     S
Ho1    O5      2.189   .     S
Ho1    O6      2.225   .     S
Ho1    O7      2.139   .     S
Ho1    O10     2.254   .     S
Ho1    O15     2.139   .     S
Ho1    O17     2.222   .     S
C2     O12     1.280   .     A
C2     O13     1.272   .     A
C2     C354    1.477   .     S
Ho3    O7      2.166   .     S
Ho3    O11     2.226   .     S
Ho3    O12     2.193   .     S
Ho3    O13     2.167   .     S
Ho3    O14     2.263   .     S
Ho3    O15     2.184   .     S
Ho3    O16     2.212   .     S
O6     C8      1.214   .     D
O7     C8      1.368   .     S
C8     C314    1.461   .     S
C9     O14     1.197   .     D
C9     O15     1.342   .     S
C9     C94     1.475   .     S
O10    C19     1.317   .     A
O11    C19     1.309   .     A
O16    C18     1.307   .     A
O17    C18     1.309   .     A
C18    C302    1.478   .     S
C19    C236    1.461   .     S
C20    O24     1.283   .     A
C20    O25     1.281   .     A
C20    C366    1.467   .     S
Ho21   O24     2.185   .     S
Ho21   O25     2.185   .     S
Ho21   O26     2.167   .     S
Ho21   O27     2.162   .     S
Ho21   O30     2.231   .     S
Ho21   O35     2.122   .     S
Ho21   O37     2.213   .     S
C22    O32     1.285   .     A
C22    O33     1.275   .     A
C22    C172    1.467   1_554 S
Ho23   O27     2.186   .     S
Ho23   O31     2.178   .     S
Ho23   O32     2.194   .     S
Ho23   O33     2.159   .     S
Ho23   O34     2.234   .     S
Ho23   O35     2.116   .     S
Ho23   O36     2.184   .     S
O26    C28     1.229   .     D
O27    C28     1.407   .     S
C28    C80     1.465   .     S
C29    O34     1.233   .     D
C29    O35     1.377   .     S
C29    C198    1.475   .     S
O30    C39     1.311   .     A
O31    C39     1.301   .     A
O36    C38     1.294   .     A
O37    C38     1.299   .     A
C38    C340    1.464   .     S
C39    C120    1.478   .     S
C40    O44     1.281   .     A
C40    O45     1.283   .     A
C40    C132    1.472   .     S
Ho41   O44     2.169   .     S
Ho41   O45     2.194   .     S
Ho41   O46     2.185   .     S
Ho41   O47     2.119   .     S
Ho41   O50     2.218   .     S
Ho41   O55     2.109   .     S
Ho41   O57     2.214   .     S
C42    O52     1.276   .     A
C42    O53     1.272   .     A
C42    C288    1.464   .     S
Ho43   O47     2.177   .     S
Ho43   O51     2.199   .     S
Ho43   O52     2.189   .     S
Ho43   O53     2.175   .     S
Ho43   O54     2.268   .     S
Ho43   O55     2.189   .     S
Ho43   O56     2.199   .     S
O46    C48     1.234   .     D
O47    C48     1.397   .     S
C48    C184    1.467   .     S
C49    O54     1.201   .     D
C49    O55     1.339   .     S
C49    C328    1.472   .     S
O50    C59     1.315   .     A
O51    C59     1.311   .     A
O56    C58     1.298   .     A
O57    C58     1.301   .     A
C58    C158    1.482   .     S
C59    C276    1.476   .     S
C60    O64     1.277   .     A
C60    O65     1.281   .     A
C60    C106    1.468   .     S
Ho61   O64     2.175   .     S
Ho61   O65     2.194   .     S
Ho61   O66     2.196   .     S
Ho61   O67     2.154   .     S
Ho61   O70     2.219   .     S
Ho61   O75     2.154   .     S
Ho61   O77     2.213   .     S
C62    O72     1.282   .     A
C62    O73     1.272   .     A
C62    C210    1.475   .     S
Ho63   O67     2.140   .     S
Ho63   O71     2.188   .     S
Ho63   O72     2.200   .     S
Ho63   O73     2.161   .     S
Ho63   O74     2.207   .     S
Ho63   O75     2.161   .     S
Ho63   O76     2.194   .     S
O66    C68     1.226   .     D
O67    C68     1.385   .     S
C68    C146    1.461   .     S
C69    O74     1.225   .     D
C69    O75     1.383   .     S
C69    C250    1.475   .     S
O70    C79     1.299   .     A
O71    C79     1.294   .     A
O76    C78     1.307   .     A
O77    C78     1.309   .     A
C78    C262    1.459   .     S
C79    C380    1.477   .     S
C80    C81     1.402   .     A
C80    C85     1.403   .     A
C81    C82     1.401   .     A
C81    H103    1.083   .     S
C82    C83     1.408   .     A
C82    H101    1.082   .     S
C83    C84     1.399   .     A
C83    O93     1.402   .     S
C84    C85     1.396   .     A
C84    H102    1.083   .     S
C85    H105    1.084   .     S
C86    O93     1.405   .     S
C86    H104    1.088   .     S
C86    C100    1.335   1_554 D
H87    C95     1.083   .     S
H88    C96     1.081   .     S
H89    C98     1.082   .     S
H90    C99     1.083   .     S
H91    C100    1.087   .     S
O92    C97     1.410   .     S
O92    C100    1.406   .     S
C94    C95     1.404   .     A
C94    C99     1.402   .     A
C95    C96     1.396   .     A
C96    C97     1.411   .     A
C97    C98     1.403   .     A
C98    C99     1.402   .     A
C100   C86     1.335   1_556 D
C106   C107    1.401   .     A
C106   C111    1.402   .     A
C107   C108    1.405   .     A
C107   H129    1.083   .     S
C108   C109    1.416   .     A
C108   H127    1.082   .     S
C109   C110    1.397   .     A
C109   O119    1.407   .     S
C110   C111    1.393   .     A
C110   H128    1.083   .     S
C111   H131    1.084   .     S
C112   O119    1.402   .     S
C112   C126    1.335   .     D
C112   H130    1.086   .     S
H113   C121    1.083   .     S
H114   C122    1.082   1_545 S
H115   C124    1.082   .     S
H116   C125    1.084   .     S
H117   C126    1.088   .     S
O118   C123    1.402   .     S
O118   C126    1.399   .     S
C120   C121    1.405   .     A
C120   C125    1.406   .     A
C121   C122    1.405   .     A
C122   H114    1.082   1_565 S
C122   C123    1.411   1_565 A
C123   C124    1.395   .     A
C123   C122    1.411   1_545 A
C124   C125    1.392   1_545 A
C125   C124    1.392   1_565 A
C132   C133    1.406   .     A
C132   C137    1.405   .     A
C133   C134    1.404   .     A
C133   H155    1.083   .     S
C134   C135    1.405   .     A
C134   H153    1.083   .     S
C135   C136    1.395   .     A
C135   O145    1.393   .     S
C136   C137    1.391   .     A
C136   H154    1.084   .     S
C137   H157    1.083   .     S
C138   O145    1.399   .     S
C138   C152    1.331   .     D
C138   H156    1.088   .     S
H139   C147    1.083   .     S
H140   C148    1.082   .     S
H141   C150    1.083   .     S
H142   C151    1.083   .     S
H143   C152    1.090   .     S
O144   C149    1.401   .     S
O144   C152    1.405   .     S
C146   C147    1.399   .     A
C146   C151    1.403   .     A
C147   C148    1.394   .     A
C148   C149    1.406   .     A
C149   C150    1.401   .     A
C150   C151    1.401   .     A
C158   C159    1.408   .     A
C158   C163    1.407   .     A
C159   C160    1.398   .     A
C159   H181    1.083   .     S
C160   C161    1.406   .     A
C160   H179    1.082   1_545 S
C161   C162    1.399   .     A
C161   O171    1.404   .     S
C162   C163    1.399   .     A
C162   H180    1.083   .     S
C163   H183    1.083   .     S
C164   O171    1.404   .     S
C164   C178    1.333   .     D
C164   H182    1.089   1_545 S
H165   C173    1.083   1_545 S
H166   C174    1.082   .     S
H167   C176    1.083   .     S
H168   C177    1.084   .     S
H169   C178    1.089   .     S
O170   C175    1.397   .     S
O170   C178    1.401   1_565 S
C172   C173    1.403   .     A
C172   C177    1.403   .     A
C172   C22     1.467   1_556 S
C173   H165    1.083   1_565 S
C173   C174    1.404   1_565 A
C174   C173    1.404   1_545 A
C174   C175    1.404   1_545 A
C175   C176    1.397   .     A
C175   C174    1.404   1_565 A
C176   C177    1.394   .     A
C178   O170    1.401   1_545 S
H179   C160    1.082   1_565 S
H182   C164    1.089   1_565 S
C184   C185    1.404   .     A
C184   C189    1.405   .     A
C185   C186    1.396   1_545 A
C185   H207    1.085   1_545 S
C186   H205    1.084   .     S
C186   C185    1.396   1_565 A
C186   C187    1.411   1_565 A
C187   C188    1.401   .     A
C187   O197    1.409   .     S
C187   C186    1.411   1_545 A
C188   C189    1.400   .     A
C188   H206    1.083   .     S
C189   H209    1.083   .     S
C190   C204    1.334   .     D
C190   H208    1.089   .     S
C190   O197    1.401   1_565 S
H191   C199    1.083   .     S
H192   C200    1.082   .     S
H193   C202    1.083   .     S
H194   C203    1.084   .     S
H195   C204    1.088   .     S
O196   C201    1.399   .     S
O196   C204    1.398   .     S
O197   C190    1.401   1_545 S
C198   C199    1.406   .     A
C198   C203    1.405   .     A
C199   C200    1.409   .     A
C200   C201    1.412   .     A
C201   C202    1.393   .     A
C202   C203    1.387   .     A
H207   C185    1.085   1_565 S
C210   C211    1.404   .     A
C210   C215    1.402   .     A
C211   C212    1.394   .     A
C211   H233    1.084   .     S
C212   C213    1.410   .     A
C212   H231    1.082   .     S
C213   C214    1.405   .     A
C213   O223    1.411   .     S
C214   C215    1.404   .     A
C214   H232    1.082   .     S
C215   H235    1.083   .     S
C216   O223    1.408   .     S
C216   C230    1.336   .     D
C216   H234    1.087   .     S
H217   C225    1.083   .     S
H218   C226    1.082   .     S
H219   C228    1.083   .     S
H220   C229    1.084   .     S
H221   C230    1.089   .     S
O222   C227    1.402   .     S
O222   C230    1.406   .     S
C224   C225    1.401   .     A
C224   C229    1.402   .     A
C225   C226    1.400   .     A
C226   C227    1.406   .     A
C227   C228    1.401   .     A
C228   C229    1.399   .     A
C236   C237    1.401   .     A
C236   C241    1.400   .     A
C237   H259    1.083   .     S
C237   C238    1.404   1_556 A
C238   C239    1.412   .     A
C238   H257    1.082   .     S
C238   C237    1.404   1_554 A
C239   C240    1.396   .     A
C239   O249    1.402   .     S
C240   H258    1.083   .     S
C240   C241    1.392   1_554 A
C241   H261    1.084   .     S
C241   C240    1.392   1_556 A
C242   O249    1.401   .     S
C242   C256    1.333   .     D
C242   H260    1.088   .     S
H243   C251    1.083   .     S
H244   C252    1.083   .     S
H245   C254    1.082   .     S
H246   C255    1.083   .     S
H247   C256    1.089   .     S
O248   C253    1.397   .     S
O248   C256    1.400   .     S
C250   C251    1.405   .     A
C250   C255    1.405   .     A
C251   C252    1.402   .     A
C252   C253    1.404   .     A
C253   C254    1.396   .     A
C254   C255    1.396   .     A
C262   C263    1.399   .     A
C262   C267    1.401   .     A
C263   C264    1.393   .     A
C263   H285    1.084   .     S
C264   C265    1.409   .     A
C264   H283    1.083   .     S
C265   C266    1.401   .     A
C265   O275    1.403   .     S
C266   C267    1.399   .     A
C266   H284    1.082   .     S
C267   H287    1.083   .     S
C268   O275    1.405   .     S
C268   C282    1.329   .     D
C268   H286    1.089   .     S
H269   C277    1.083   .     S
H270   C278    1.082   .     S
H271   C280    1.083   .     S
H272   C281    1.083   .     S
H273   C282    1.088   .     S
O274   C279    1.404   .     S
O274   C282    1.405   .     S
C276   C281    1.405   .     A
C276   C277    1.406   1_655 A
C277   C278    1.390   .     A
C277   C276    1.406   1_455 A
C278   C279    1.406   .     A
C279   C280    1.402   1_455 A
C280   C281    1.401   .     A
C280   C279    1.402   1_655 A
C288   C289    1.401   1_545 D
C288   C293    1.402   1_545 S
C289   C290    1.398   .     A
C289   C288    1.401   1_565 D
C289   H311    1.083   1_565 S
C290   C291    1.407   .     A
C290   H309    1.083   .     S
C291   C292    1.401   .     A
C291   O301    1.401   1_655 S
C292   C293    1.399   .     A
C292   H310    1.083   1_655 S
C293   C288    1.402   1_565 S
C293   H313    1.083   1_565 S
C294   O301    1.404   .     S
C294   C308    1.334   .     D
C294   H312    1.090   1_455 S
H295   C303    1.084   .     S
H296   C304    1.080   .     S
H297   C306    1.082   .     S
H298   C307    1.083   .     S
H299   C308    1.084   .     S
O300   C305    1.408   .     S
O300   C308    1.403   .     S
O301   C291    1.401   1_455 S
C302   C303    1.405   .     A
C302   C307    1.404   .     A
C303   C304    1.404   .     A
C304   C305    1.415   .     A
C305   C306    1.396   .     A
C306   C307    1.393   .     A
H310   C292    1.083   1_455 S
H311   C289    1.083   1_545 S
H312   C294    1.090   1_655 S
H313   C293    1.083   1_545 S
C314   C315    1.400   .     A
C314   C319    1.401   .     A
C315   C316    1.396   .     A
C315   H337    1.085   .     S
C316   C317    1.409   .     A
C316   H335    1.083   .     S
C317   C318    1.401   1_455 A
C317   O327    1.404   1_455 S
C318   H336    1.082   .     S
C318   C317    1.401   1_655 A
C318   C319    1.401   1_655 A
C319   H339    1.083   .     S
C319   C318    1.401   1_455 A
C320   O327    1.405   .     S
C320   C334    1.332   .     D
C320   H338    1.090   .     S
H321   C329    1.083   .     S
H322   C330    1.083   .     S
H323   C332    1.083   .     S
H324   C333    1.084   .     S
H325   C334    1.087   .     S
O326   C331    1.397   .     S
O326   C334    1.398   .     S
O327   C317    1.404   1_655 S
C328   C329    1.405   .     A
C328   C333    1.405   .     A
C329   C330    1.407   .     A
C330   C331    1.410   .     A
C331   C332    1.393   .     A
C332   C333    1.389   .     A
C340   C341    1.403   .     A
C340   C345    1.400   .     A
C341   C342    1.405   .     A
C341   H363    1.083   .     S
C342   C343    1.411   .     A
C342   H361    1.082   .     S
C343   C344    1.397   .     A
C343   O353    1.401   .     S
C344   C345    1.391   .     A
C344   H362    1.083   .     S
C345   H365    1.084   .     S
C346   O353    1.401   .     S
C346   C360    1.335   .     D
C346   H364    1.088   .     S
H347   C355    1.083   .     S
H348   C356    1.083   1_554 S
H349   C358    1.083   .     S
H350   C359    1.083   .     S
H351   C360    1.088   .     S
O352   C357    1.407   .     S
O352   C360    1.404   1_556 S
C354   C355    1.403   .     A
C354   C359    1.407   1_455 A
C355   C356    1.401   1_455 A
C356   C357    1.411   .     A
C356   H348    1.083   1_556 S
C356   C355    1.401   1_655 A
C357   C358    1.398   .     A
C358   C359    1.397   .     A
C359   C354    1.407   1_655 A
C360   O352    1.404   1_554 S
C366   C367    1.402   .     A
C366   C371    1.403   .     A
C367   C368    1.402   .     A
C367   H389    1.083   .     S
C368   C369    1.409   .     A
C368   H387    1.082   .     S
C369   C370    1.399   .     A
C369   O379    1.405   .     S
C370   C371    1.398   .     A
C370   H388    1.083   .     S
C371   H391    1.084   .     S
C372   O379    1.402   .     S
C372   C386    1.336   .     D
C372   H390    1.089   .     S
H373   C381    1.084   .     S
H374   C382    1.082   .     S
H375   C384    1.082   .     S
H376   C385    1.084   .     S
H377   C386    1.087   .     S
O378   C383    1.406   .     S
O378   C386    1.401   .     S
C380   C381    1.405   .     A
C380   C385    1.404   .     A
C381   C382    1.405   .     A
C382   C383    1.413   .     A
C383   C384    1.397   .     A
C384   C385    1.393   .     A
