data_lcy+N394+E229
_audit_creation_date              2025-01-21
_audit_creation_method            'Materials Studio'
_symmetry_space_group_name_H-M    'P1'
_symmetry_Int_Tables_number       1
_symmetry_cell_setting            triclinic
loop_
_symmetry_equiv_pos_as_xyz
  x,y,z
_cell_length_a                    39.3322
_cell_length_b                    38.8762
_cell_length_c                    35.8403
_cell_angle_alpha                 90.4998
_cell_angle_beta                  95.9783
_cell_angle_gamma                 89.3066
loop_
_atom_site_label
_atom_site_type_symbol
_atom_site_fract_x
_atom_site_fract_y
_atom_site_fract_z
_atom_site_U_iso_or_equiv
_atom_site_adp_type
_atom_site_occupancy
Pr0    Pr    0.08632   0.65782   0.83403   0.00000  Uiso   1.00
Pr1    Pr    0.12861   0.60243   0.89973   0.00000  Uiso   1.00
O2     O     0.08275   0.63776   0.91832   0.00000  Uiso   1.00
O3     O     0.06472   0.68342   0.88269   0.00000  Uiso   1.00
O4     O     0.03826   0.67437   0.79803   0.00000  Uiso   1.00
O5     O     0.08405   0.70349   0.79483   0.00000  Uiso   1.00
O6     O     0.14163   0.64973   0.86449   0.00000  Uiso   1.00
O7     O     0.11662   0.69741   0.87268   0.00000  Uiso   1.00
C8     C     0.07254   0.58242   0.85046   0.00000  Uiso   1.00
C9     C     0.06435   0.66565   0.91249   0.00000  Uiso   1.00
C10    C     0.05235   0.69979   0.78374   0.00000  Uiso   1.00
C11    C     0.19283   0.59585   0.93494   0.00000  Uiso   1.00
C12    C     0.13652   0.60943   0.80883   0.00000  Uiso   1.00
C13    C     0.14306   0.68198   0.88072   0.00000  Uiso   1.00
O14    O     0.11011   0.62426   0.79241   0.00000  Uiso   1.00
O15    O     0.14803   0.62021   0.84228   0.00000  Uiso   1.00
O16    O     0.17216   0.61941   0.94296   0.00000  Uiso   1.00
O17    O     0.18163   0.57707   0.90736   0.00000  Uiso   1.00
O18    O     0.07468   0.61217   0.87054   0.00000  Uiso   1.00
O19    O     0.09813   0.56543   0.85712   0.00000  Uiso   1.00
Pr20   Pr    0.60415   0.88130   0.09335   0.00000  Uiso   1.00
Pr21   Pr    0.63795   0.83096   0.14499   0.00000  Uiso   1.00
O22    O     0.66796   0.81724   0.09574   0.00000  Uiso   1.00
O23    O     0.64218   0.85600   0.05487   0.00000  Uiso   1.00
O24    O     0.60891   0.93362   0.06717   0.00000  Uiso   1.00
O25    O     0.62775   0.88955   1.03864   0.00000  Uiso   1.00
O26    O     0.59048   0.82631   0.10367   0.00000  Uiso   1.00
O27    O     0.55790   0.85716   0.06123   0.00000  Uiso   1.00
C28    C     0.68062   0.88186   0.16241   0.00000  Uiso   1.00
C29    C     0.66502   0.83223   0.06373   0.00000  Uiso   1.00
C30    C     0.62204   0.92217   0.03845   0.00000  Uiso   1.00
C31    C     0.61427   0.79302   0.19902   0.00000  Uiso   1.00
C32    C     0.58139   0.88483   0.17611   0.00000  Uiso   1.00
C33    C     0.56192   0.82903   0.07664   0.00000  Uiso   1.00
O34    O     0.57503   0.89623   0.14263   0.00000  Uiso   1.00
O35    O     0.60261   0.85955   0.18433   0.00000  Uiso   1.00
O36    O     0.61199   0.82596   0.19838   0.00000  Uiso   1.00
O37    O     0.62840   0.77950   0.17184   0.00000  Uiso   1.00
O38    O     0.65267   0.88582   0.13442   0.00000  Uiso   1.00
O39    O     0.68366   0.85360   0.17777   0.00000  Uiso   1.00
Pr40   Pr    0.90208   0.15162   0.57321   0.00000  Uiso   1.00
Pr41   Pr    0.86072   0.15024   0.65107   0.00000  Uiso   1.00
O42    O     0.90267   0.18902   0.66884   0.00000  Uiso   1.00
O43    O     0.93206   0.18873   0.61676   0.00000  Uiso   1.00
O44    O     0.91358   0.18693   0.52549   0.00000  Uiso   1.00
O45    O     0.94440   0.19161   0.57801   0.00000  Uiso   1.00
O46    O     0.89579   0.11602   0.62151   0.00000  Uiso   1.00
O47    O     0.94595   0.12064   0.60720   0.00000  Uiso   1.00
C48    C     0.83313   0.19050   0.59105   0.00000  Uiso   1.00
C49    C     0.92752   0.19876   0.65068   0.00000  Uiso   1.00
C50    C     0.93882   0.20139   0.54403   0.00000  Uiso   1.00
C51    C     0.83583   0.09278   0.68018   0.00000  Uiso   1.00
C52    C     0.83257   0.10600   0.57292   0.00000  Uiso   1.00
C53    C     0.92956   0.11051   0.63139   0.00000  Uiso   1.00
O54    O     0.85716   0.11605   0.55441   0.00000  Uiso   1.00
O55    O     0.83007   0.11336   0.60808   0.00000  Uiso   1.00
O56    O     0.85675   0.11252   0.69898   0.00000  Uiso   1.00
O57    O     0.82566   0.10375   0.64743   0.00000  Uiso   1.00
O58    O     0.86696   0.18678   0.60222   0.00000  Uiso   1.00
O59    O     0.81667   0.17844   0.61409   0.00000  Uiso   1.00
Pr60   Pr    0.38899   0.39965   0.42646   0.00000  Uiso   1.00
Pr61   Pr    0.39414   0.33456   0.37881   0.00000  Uiso   1.00
O62    O     0.36341   0.30919   0.42119   0.00000  Uiso   1.00
O63    O     0.36136   0.35752   0.45895   0.00000  Uiso   1.00
O64    O     0.35797   0.44347   0.44847   0.00000  Uiso   1.00
O65    O     0.35927   0.39466   0.47731   0.00000  Uiso   1.00
O66    O     0.42472   0.35580   0.43002   0.00000  Uiso   1.00
O67    O     0.43639   0.39860   0.46949   0.00000  Uiso   1.00
C68    C     0.34020   0.37314   0.34644   0.00000  Uiso   1.00
C69    C     0.35492   0.32514   0.45087   0.00000  Uiso   1.00
C70    C     0.35149   0.42684   0.47751   0.00000  Uiso   1.00
C71    C     0.40224   0.28193   0.33066   0.00000  Uiso   1.00
C72    C     0.42728   0.40423   0.35036   0.00000  Uiso   1.00
C73    C     0.44379   0.36883   0.46181   0.00000  Uiso   1.00
O74    O     0.41736   0.42075   0.37867   0.00000  Uiso   1.00
O75    O     0.42308   0.37171   0.34484   0.00000  Uiso   1.00
O76    O     0.42405   0.28876   0.35850   0.00000  Uiso   1.00
O77    O     0.37532   0.30078   0.32879   0.00000  Uiso   1.00
O78    O     0.35031   0.37368   0.38452   0.00000  Uiso   1.00
O79    O     0.35394   0.34986   0.33053   0.00000  Uiso   1.00
C80    C     0.48172   0.77829   0.04566   0.00000  Uiso   1.00
C81    C     0.49271   0.74506   0.05682   0.00000  Uiso   1.00
C82    C     0.52622   0.73922   0.07271   0.00000  Uiso   1.00
C83    C     0.54887   0.76659   0.07855   0.00000  Uiso   1.00
C84    C     0.53834   0.80007   0.06801   0.00000  Uiso   1.00
C85    C     0.50495   0.80566   0.05074   0.00000  Uiso   1.00
C86    C     0.44466   0.78529   0.03228   0.00000  Uiso   1.00
H87    H     0.47517   0.72374   0.05385   0.00000  Uiso   1.00
H88    H     0.53453   0.71348   0.08096   0.00000  Uiso   1.00
H89    H     0.57449   0.76164   0.09178   0.00000  Uiso   1.00
H90    H     0.49647   0.83157   0.04330   0.00000  Uiso   1.00
H91    H     0.43065   0.78635   0.05769   0.00000  Uiso   1.00
H92    H     0.44163   0.81071   0.01827   0.00000  Uiso   1.00
C93    C     0.23589   0.69932   0.91600   0.00000  Uiso   1.00
C94    C     0.20589   0.68156   0.90294   0.00000  Uiso   1.00
C95    C     0.27015   0.68117   0.91972   0.00000  Uiso   1.00
C96    C     0.32612   0.69993   0.94846   0.00000  Uiso   1.00
C97    C     0.34171   0.72274   0.98058   0.00000  Uiso   1.00
C98    C     0.23391   0.73479   0.92356   0.00000  Uiso   1.00
C99    C     0.20239   0.75187   0.92014   0.00000  Uiso   1.00
C100   C     0.17405   0.69877   0.89909   0.00000  Uiso   1.00
H101   H     0.25683   0.74932   0.93194   0.00000  Uiso   1.00
H102   H     0.20113   0.77922   0.92588   0.00000  Uiso   1.00
H103   H     0.14846   0.74792   0.90551   0.00000  Uiso   1.00
H104   H     0.20758   0.65482   0.89449   0.00000  Uiso   1.00
H105   H     0.28269   0.68650   0.89400   0.00000  Uiso   1.00
C106   C     0.39362   0.75702   0.00530   0.00000  Uiso   1.00
C107   C     0.37937   0.73008   0.97674   0.00000  Uiso   1.00
H108   H     0.34078   0.67534   0.94768   0.00000  Uiso   1.00
H109   H     0.32702   0.74739   0.98022   0.00000  Uiso   1.00
H110   H     0.33968   0.70979   1.00778   0.00000  Uiso   1.00
H111   H     0.32757   0.71403   0.92176   0.00000  Uiso   1.00
H112   H     0.26676   0.65291   0.92113   0.00000  Uiso   1.00
H113   H     0.38193   0.78250  -0.00260   0.00000  Uiso   1.00
H114   H     0.38683   0.74979   0.03356   0.00000  Uiso   1.00
N115   N     0.43089   0.75852   0.00589   0.00000  Uiso   1.00
N116   N     0.29052   0.69260   0.95425   0.00000  Uiso   1.00
C117   C     0.17258   0.73393   0.90857   0.00000  Uiso   1.00
C118   C     0.44619   0.21390   0.27514   0.00000  Uiso   1.00
C119   C     0.42347   0.21267   0.24223   0.00000  Uiso   1.00
C120   C     0.39329   0.23214   0.23931   0.00000  Uiso   1.00
C121   C     0.38580   0.25369   0.26879   0.00000  Uiso   1.00
C122   C     0.40849   0.25599   0.30166   0.00000  Uiso   1.00
C123   C     0.43852   0.23558   0.30491   0.00000  Uiso   1.00
C124   C     0.47851   0.19247   0.27765   0.00000  Uiso   1.00
H125   H     0.42910   0.19644   0.21887   0.00000  Uiso   1.00
H126   H     0.37584   0.23088   0.21391   0.00000  Uiso   1.00
H127   H     0.36269   0.26928   0.26541   0.00000  Uiso   1.00
H128   H     0.45618   0.23709   0.33015   0.00000  Uiso   1.00
H129   H     0.49457   0.20185   0.25615   0.00000  Uiso   1.00
H130   H     0.49321   0.19507   0.30574   0.00000  Uiso   1.00
C131   C     0.52971   0.94972   0.22751   0.00000  Uiso   1.00
C132   C     0.54267   0.93067   0.19852   0.00000  Uiso   1.00
C133   C     0.50567   0.97967   0.21875   0.00000  Uiso   1.00
C134   C     0.49649   0.03987   0.23021   0.00000  Uiso   1.00
C135   C     0.51315   0.07347   0.24444   0.00000  Uiso   1.00
C136   C     0.53891   0.94024   0.26490   0.00000  Uiso   1.00
C137   C     0.56063   0.91204   0.27321   0.00000  Uiso   1.00
C138   C     0.56491   0.90239   0.20661   0.00000  Uiso   1.00
H139   H     0.52919   0.95471   0.28756   0.00000  Uiso   1.00
H140   H     0.56776   0.90502   0.30218   0.00000  Uiso   1.00
H141   H     0.59091   0.87192   0.25168   0.00000  Uiso   1.00
H142   H     0.53589   0.93840   0.16971   0.00000  Uiso   1.00
H143   H     0.48185   0.97491   0.23211   0.00000  Uiso   1.00
C144   C     0.49863   0.13537   0.26195   0.00000  Uiso   1.00
C145   C     0.48514   0.10007   0.24965   0.00000  Uiso   1.00
H146   H     0.48557   0.04325   0.20051   0.00000  Uiso   1.00
H147   H     0.52858   0.06909   0.27181   0.00000  Uiso   1.00
H148   H     0.53015   0.08283   0.22384   0.00000  Uiso   1.00
H149   H     0.47542   0.03380   0.24750   0.00000  Uiso   1.00
H150   H     0.49866   0.98180   0.18795   0.00000  Uiso   1.00
H151   H     0.51755   0.13306   0.28719   0.00000  Uiso   1.00
H152   H     0.51101   0.14676   0.23843   0.00000  Uiso   1.00
N153   N     0.46943   0.15639   0.27084   0.00000  Uiso   1.00
N154   N     0.52171   0.01172   0.23296   0.00000  Uiso   1.00
C155   C     0.57357   0.89319   0.24433   0.00000  Uiso   1.00
C156   C     0.77038   0.21566   0.50846   0.00000  Uiso   1.00
C157   C     0.79185   0.23304   0.48620   0.00000  Uiso   1.00
C158   C     0.82630   0.23753   0.49891   0.00000  Uiso   1.00
C159   C     0.83958   0.22453   0.53369   0.00000  Uiso   1.00
C160   C     0.81855   0.20656   0.55589   0.00000  Uiso   1.00
C161   C     0.78383   0.20254   0.54331   0.00000  Uiso   1.00
C162   C     0.73289   0.21293   0.49650   0.00000  Uiso   1.00
H163   H     0.78181   0.24364   0.45938   0.00000  Uiso   1.00
H164   H     0.84269   0.25134   0.48192   0.00000  Uiso   1.00
H165   H     0.86622   0.22858   0.54332   0.00000  Uiso   1.00
H166   H     0.76722   0.18906   0.56043   0.00000  Uiso   1.00
H167   H     0.72745   0.21869   0.46608   0.00000  Uiso   1.00
H168   H     0.72430   0.18631   0.50132   0.00000  Uiso   1.00
C169   C     0.52027   0.33410   0.52296   0.00000  Uiso   1.00
C170   C     0.50068   0.35403   0.49598   0.00000  Uiso   1.00
C171   C     0.55820   0.33774   0.52932   0.00000  Uiso   1.00
C172   C     0.61026   0.30444   0.52849   0.00000  Uiso   1.00
C173   C     0.62420   0.27048   0.51473   0.00000  Uiso   1.00
C174   C     0.50427   0.30908   0.54289   0.00000  Uiso   1.00
C175   C     0.46938   0.30295   0.53507   0.00000  Uiso   1.00
C176   C     0.46565   0.34751   0.48788   0.00000  Uiso   1.00
H177   H     0.51901   0.29405   0.56428   0.00000  Uiso   1.00
H178   H     0.45729   0.28348   0.55043   0.00000  Uiso   1.00
H179   H     0.42324   0.31671   0.50115   0.00000  Uiso   1.00
H180   H     0.51260   0.37367   0.48051   0.00000  Uiso   1.00
H181   H     0.56543   0.34261   0.55971   0.00000  Uiso   1.00
C182   C     0.67827   0.23684   0.50816   0.00000  Uiso   1.00
C183   C     0.66251   0.26805   0.52578   0.00000  Uiso   1.00
H184   H     0.62310   0.32617   0.51580   0.00000  Uiso   1.00
H185   H     0.61138   0.24875   0.52735   0.00000  Uiso   1.00
H186   H     0.61879   0.26906   0.48368   0.00000  Uiso   1.00
H187   H     0.61525   0.30596   0.55962   0.00000  Uiso   1.00
H188   H     0.56691   0.35955   0.51302   0.00000  Uiso   1.00
H189   H     0.66758   0.21290   0.51878   0.00000  Uiso   1.00
H190   H     0.67241   0.23813   0.47713   0.00000  Uiso   1.00
N191   N     0.71504   0.23764   0.51863   0.00000  Uiso   1.00
N192   N     0.57358   0.30574   0.51716   0.00000  Uiso   1.00
C193   C     0.45024   0.32176   0.50726   0.00000  Uiso   1.00
C194   C     0.81945   0.01937   0.74422   0.00000  Uiso   1.00
C195   C     0.81601  -0.00799   0.71829   0.00000  Uiso   1.00
C196   C     0.81735  -0.00201   0.68017   0.00000  Uiso   1.00
C197   C     0.82280   0.03117   0.66771   0.00000  Uiso   1.00
C198   C     0.82698   0.05870   0.69337   0.00000  Uiso   1.00
C199   C     0.82560   0.05264   0.73168   0.00000  Uiso   1.00
C200   C     0.81615   0.01280   0.78486   0.00000  Uiso   1.00
H201   H     0.81186  -0.03388   0.72764   0.00000  Uiso   1.00
H202   H     0.81448  -0.02319   0.66029   0.00000  Uiso   1.00
H203   H     0.82510   0.03507   0.63824   0.00000  Uiso   1.00
H204   H     0.82908   0.07377   0.75156   0.00000  Uiso   1.00
H205   H     0.83674  -0.00549   0.79573   0.00000  Uiso   1.00
H206   H     0.81896   0.03714   0.80146   0.00000  Uiso   1.00
C207   C     0.64481   0.95287   0.94418   0.00000  Uiso   1.00
C208   C     0.63863   0.93109   0.97366   0.00000  Uiso   1.00
C209   C     0.65743   0.93876   0.90904   0.00000  Uiso   1.00
C210   C     0.70089   0.95197   0.86867   0.00000  Uiso   1.00
C211   C     0.73661   0.96665   0.86861   0.00000  Uiso   1.00
C212   C     0.64021   0.98851   0.94812   0.00000  Uiso   1.00
C213   C     0.62997   1.00230   0.98126   0.00000  Uiso   1.00
C214   C     0.62903   0.94484   1.00742   0.00000  Uiso   1.00
H215   H     0.64473   1.00557   0.92549   0.00000  Uiso   1.00
H216   H     0.62626   1.02982   0.98403   0.00000  Uiso   1.00
H217   H     0.61674   0.99188   0.03642   0.00000  Uiso   1.00
H218   H     0.64095   0.90359   0.97008   0.00000  Uiso   1.00
H219   H     0.63970   0.94773   0.88472   0.00000  Uiso   1.00
C220   C     0.77862  -0.00988   0.82713   0.00000  Uiso   1.00
C221   C     0.74423   0.97302   0.82847   0.00000  Uiso   1.00
H222   H     0.70027   0.92557   0.85638   0.00000  Uiso   1.00
H223   H     0.73809  -0.00860   0.88450   0.00000  Uiso   1.00
H224   H     0.75574   0.94827   0.88241   0.00000  Uiso   1.00
H225   H     0.68233   0.96889   0.85161   0.00000  Uiso   1.00
H226   H     0.65768   0.91015   0.90878   0.00000  Uiso   1.00
H227   H     0.77945   0.01427   0.84409   0.00000  Uiso   1.00
H228   H     0.79922   0.97213   0.83869   0.00000  Uiso   1.00
N229   N     0.78257  -0.00191   0.78814   0.00000  Uiso   1.00
N230   N     0.69226   0.95092   0.90728   0.00000  Uiso   1.00
C231   C     0.62461   0.98064   0.01089   0.00000  Uiso   1.00
C232   C     0.77181   0.06863   0.49401   0.00000  Uiso   1.00
C233   C     0.74883   0.05129   0.51442   0.00000  Uiso   1.00
C234   C     0.75358   0.05107   0.55350   0.00000  Uiso   1.00
C235   C     0.78105   0.06847   0.57254   0.00000  Uiso   1.00
C236   C     0.80476   0.08561   0.55267   0.00000  Uiso   1.00
C237   C     0.79996   0.08541   0.51319   0.00000  Uiso   1.00
C238   C     0.76528   0.07025   0.45207   0.00000  Uiso   1.00
H239   H     0.72697   0.03835   0.50001   0.00000  Uiso   1.00
H240   H     0.73555   0.03796   0.56914   0.00000  Uiso   1.00
H241   H     0.78334   0.06875   0.60281   0.00000  Uiso   1.00
H242   H     0.81742   0.09920   0.49738   0.00000  Uiso   1.00
H243   H     0.73940   0.08175   0.44476   0.00000  Uiso   1.00
H244   H     0.78429   0.08697   0.44041   0.00000  Uiso   1.00
C245   C     0.74485   0.93719   0.22037   0.00000  Uiso   1.00
C246   C     0.72316   0.90986   0.20894   0.00000  Uiso   1.00
C247   C     0.76243   0.93860   0.25960   0.00000  Uiso   1.00
C248   C     0.76045   0.96688   0.31946   0.00000  Uiso   1.00
C249   C     0.74876   0.99986   0.33770   0.00000  Uiso   1.00
C250   C     0.74860   0.96417   0.19542   0.00000  Uiso   1.00
C251   C     0.73024   0.96421   0.15987   0.00000  Uiso   1.00
C252   C     0.70444   0.90992   0.17335   0.00000  Uiso   1.00
H253   H     0.76530   0.98542   0.20380   0.00000  Uiso   1.00
H254   H     0.73317   0.98519   0.14082   0.00000  Uiso   1.00
H255   H     0.69371   0.93792   0.12140   0.00000  Uiso   1.00
H256   H     0.72002   0.88907   0.22817   0.00000  Uiso   1.00
H257   H     0.79028   0.94255   0.25844   0.00000  Uiso   1.00
C258   C     0.75496   0.03591   0.39634   0.00000  Uiso   1.00
C259   C     0.76253   1.00116   0.37903   0.00000  Uiso   1.00
H260   H     0.75000   0.94430   0.33316   0.00000  Uiso   1.00
H261   H     0.75828   1.02228   0.32290   0.00000  Uiso   1.00
H262   H     0.72035   1.00099   0.33518   0.00000  Uiso   1.00
H263   H     0.78889   0.96545   0.32293   0.00000  Uiso   1.00
H264   H     0.75905   0.91392   0.27430   0.00000  Uiso   1.00
H265   H     0.76806   0.05624   0.38168   0.00000  Uiso   1.00
H266   H     0.72688   0.04083   0.39301   0.00000  Uiso   1.00
N267   N     0.76736   0.03558   0.43618   0.00000  Uiso   1.00
N268   N     0.74779   0.96717   0.27967   0.00000  Uiso   1.00
C269   C     0.70797   0.93736   0.14893   0.00000  Uiso   1.00
C270   C     0.30778   0.47345   0.55369   0.00000  Uiso   1.00
C271   C     0.33692   0.48397   0.57691   0.00000  Uiso   1.00
C272   C     0.36948   0.47448   0.56841   0.00000  Uiso   1.00
C273   C     0.37340   0.45507   0.53628   0.00000  Uiso   1.00
C274   C     0.34479   0.44495   0.51217   0.00000  Uiso   1.00
C275   C     0.31185   0.45407   0.52085   0.00000  Uiso   1.00
C276   C     0.27279   0.48416   0.56333   0.00000  Uiso   1.00
H277   H     0.33464   0.49958   0.60162   0.00000  Uiso   1.00
H278   H     0.39178   0.48243   0.58659   0.00000  Uiso   1.00
H279   H     0.39895   0.44830   0.52980   0.00000  Uiso   1.00
H280   H     0.28968   0.44663   0.50206   0.00000  Uiso   1.00
H281   H     0.26946   0.51233   0.55829   0.00000  Uiso   1.00
H282   H     0.25266   0.47112   0.54440   0.00000  Uiso   1.00
C283   C     0.20186   0.54332   0.78171   0.00000  Uiso   1.00
C284   C     0.18729   0.57143   0.79968   0.00000  Uiso   1.00
C285   C     0.23941   0.53487   0.78932   0.00000  Uiso   1.00
C286   C     0.26528   0.51484   0.73366   0.00000  Uiso   1.00
C287   C     0.26493   0.52596   0.69283   0.00000  Uiso   1.00
C288   C     0.18115   0.52357   0.75560   0.00000  Uiso   1.00
C289   C     0.14692   0.53247   0.74635   0.00000  Uiso   1.00
C290   C     0.15277   0.58054   0.79019   0.00000  Uiso   1.00
H291   H     0.19127   0.50119   0.74230   0.00000  Uiso   1.00
H292   H     0.13119   0.51721   0.72608   0.00000  Uiso   1.00
H293   H     0.10626   0.56748   0.75533   0.00000  Uiso   1.00
H294   H     0.20293   0.58661   0.82020   0.00000  Uiso   1.00
H295   H     0.24316   0.50722   0.79671   0.00000  Uiso   1.00
C296   C     0.26557   0.50527   0.62605   0.00000  Uiso   1.00
C297   C     0.26846   0.49475   0.66715   0.00000  Uiso   1.00
H298   H     0.29104   0.50470   0.74407   0.00000  Uiso   1.00
H299   H     0.24036   0.53949   0.68401   0.00000  Uiso   1.00
H300   H     0.28633   0.54390   0.69015   0.00000  Uiso   1.00
H301   H     0.24660   0.49379   0.73490   0.00000  Uiso   1.00
H302   H     0.25080   0.54961   0.81412   0.00000  Uiso   1.00
H303   H     0.24034   0.51805   0.61850   0.00000  Uiso   1.00
H304   H     0.28631   0.52379   0.62240   0.00000  Uiso   1.00
N305   N     0.26855   0.47473   0.60225   0.00000  Uiso   1.00
N306   N     0.25702   0.54455   0.75682   0.00000  Uiso   1.00
C307   C     0.13291   0.56103   0.76307   0.00000  Uiso   1.00
C308   C     0.25742   0.57879   0.01854   0.00000  Uiso   1.00
C309   C     0.28617   0.56905   0.00059   0.00000  Uiso   1.00
C310   C     0.28478   0.56945   0.96143   0.00000  Uiso   1.00
C311   C     0.25452   0.57890   0.93981   0.00000  Uiso   1.00
C312   C     0.22574   0.58917   0.95730   0.00000  Uiso   1.00
C313   C     0.22748   0.58966  -0.00331   0.00000  Uiso   1.00
C314   C     0.25857   0.57683   0.06067   0.00000  Uiso   1.00
H315   H     0.30958   0.56095   0.01694   0.00000  Uiso   1.00
H316   H     0.30703   0.56182   0.94778   0.00000  Uiso   1.00
H317   H     0.25350   0.57814   0.90949   0.00000  Uiso   1.00
H318   H     0.20497   0.59674   0.01024   0.00000  Uiso   1.00
H319   H     0.28112   0.59127   0.07357   0.00000  Uiso   1.00
H320   H     0.23517   0.58902   0.07017   0.00000  Uiso   1.00
C321   C     0.27895   0.41570   0.27140   0.00000  Uiso   1.00
C322   C     0.30616   0.39584   0.28882   0.00000  Uiso   1.00
C323   C     0.27293   0.41819   0.22927   0.00000  Uiso   1.00
C324   C     0.26843   0.45773   0.17723   0.00000  Uiso   1.00
C325   C     0.26280   0.49560   0.16676   0.00000  Uiso   1.00
C326   C     0.25686   0.43301   0.29374   0.00000  Uiso   1.00
C327   C     0.26218   0.43104   0.33281   0.00000  Uiso   1.00
C328   C     0.31186   0.39416   0.32818   0.00000  Uiso   1.00
H329   H     0.23554   0.44811   0.28083   0.00000  Uiso   1.00
H330   H     0.24480   0.44425   0.34975   0.00000  Uiso   1.00
H331   H     0.29315   0.41050   0.38035   0.00000  Uiso   1.00
H332   H     0.32285   0.38179   0.27175   0.00000  Uiso   1.00
H333   H     0.24786   0.40631   0.21985   0.00000  Uiso   1.00
C334   C     0.25873   0.53800   0.11285   0.00000  Uiso   1.00
C335   C     0.26319   0.50034   0.12444   0.00000  Uiso   1.00
H336   H     0.29188   0.44781   0.16569   0.00000  Uiso   1.00
H337   H     0.23778   0.50455   0.17535   0.00000  Uiso   1.00
H338   H     0.28340   0.51123   0.18194   0.00000  Uiso   1.00
H339   H     0.24602   0.44272   0.16487   0.00000  Uiso   1.00
H340   H     0.29316   0.40374   0.21598   0.00000  Uiso   1.00
H341   H     0.23323   0.54742   0.11956   0.00000  Uiso   1.00
H342   H     0.27909   0.55354   0.12867   0.00000  Uiso   1.00
N343   N     0.26110   0.54075   0.07245   0.00000  Uiso   1.00
N344   N     0.27257   0.45443   0.21816   0.00000  Uiso   1.00
C345   C     0.28966   0.41191   0.35002   0.00000  Uiso   1.00
C346   C     0.29057   0.29852   0.51646   0.00000  Uiso   1.00
C347   C     0.30360   0.26592   0.52737   0.00000  Uiso   1.00
C348   C     0.33282   0.25281   0.51301   0.00000  Uiso   1.00
C349   C     0.34928   0.27205   0.48767   0.00000  Uiso   1.00
C350   C     0.33718   0.30508   0.47732   0.00000  Uiso   1.00
C351   C     0.30796   0.31839   0.49202   0.00000  Uiso   1.00
C352   C     0.25768   0.31114   0.53004   0.00000  Uiso   1.00
H353   H     0.29069   0.25037   0.54641   0.00000  Uiso   1.00
H354   H     0.34253   0.22753   0.52126   0.00000  Uiso   1.00
H355   H     0.37178   0.26140   0.47663   0.00000  Uiso   1.00
H356   H     0.29822   0.34368   0.48365   0.00000  Uiso   1.00
H357   H     0.26102   0.31205   0.56123   0.00000  Uiso   1.00
H358   H     0.25114   0.33748   0.51943   0.00000  Uiso   1.00
C359   C     0.01684   0.24134   0.51063   0.00000  Uiso   1.00
C360   C    -0.00405   0.22022   0.52993   0.00000  Uiso   1.00
C361   C     0.05359   0.23140   0.50788   0.00000  Uiso   1.00
C362   C     0.11155   0.25036   0.51432   0.00000  Uiso   1.00
C363   C     0.13580   0.27930   0.52767   0.00000  Uiso   1.00
C364   C     1.00218   0.26980   0.49081   0.00000  Uiso   1.00
C365   C     0.96701   0.27638   0.48940   0.00000  Uiso   1.00
C366   C     0.96055   0.22613   0.52745   0.00000  Uiso   1.00
H367   H     0.01783   0.28638   0.47574   0.00000  Uiso   1.00
H368   H     0.95581   0.29827   0.47398   0.00000  Uiso   1.00
H369   H     0.91873   0.25878   0.50463   0.00000  Uiso   1.00
H370   H     0.00682   0.19793   0.54498   0.00000  Uiso   1.00
H371   H     0.05637   0.22549   0.47790   0.00000  Uiso   1.00
C372   C     0.19792   0.29752   0.53031   0.00000  Uiso   1.00
C373   C     0.17166   0.27020   0.51776   0.00000  Uiso   1.00
H374   H     0.11996   0.22636   0.52954   0.00000  Uiso   1.00
H375   H     0.12696   0.30364   0.51359   0.00000  Uiso   1.00
H376   H     0.13615   0.28265   0.55853   0.00000  Uiso   1.00
H377   H     0.11278   0.24618   0.48370   0.00000  Uiso   1.00
H378   H     0.06053   0.20778   0.52442   0.00000  Uiso   1.00
H379   H     0.18927   0.32280   0.51824   0.00000  Uiso   1.00
H380   H     0.20075   0.29915   0.56149   0.00000  Uiso   1.00
N381   N     0.23037   0.28739   0.51673   0.00000  Uiso   1.00
N382   N     0.07646   0.25933   0.52137   0.00000  Uiso   1.00
C383   C     0.94609   0.25414   0.50692   0.00000  Uiso   1.00
C384   C     0.94438   0.04770   0.71127   0.00000  Uiso   1.00
C385   C     0.97271   0.06263   0.73217   0.00000  Uiso   1.00
C386   C     0.98663   0.09292   0.72005   0.00000  Uiso   1.00
C387   C     0.97274   0.10826   0.68676   0.00000  Uiso   1.00
C388   C     0.94413   0.09392   0.66600   0.00000  Uiso   1.00
C389   C     0.92949   0.06403   0.67867   0.00000  Uiso   1.00
C390   C     0.93310   0.01264   0.72158   0.00000  Uiso   1.00
H391   H     0.98449   0.05031   0.75736   0.00000  Uiso   1.00
H392   H     1.00857   0.10420   0.73614   0.00000  Uiso   1.00
H393   H     0.98391   0.13162   0.67747   0.00000  Uiso   1.00
H394   H     0.90772   0.05264   0.66225   0.00000  Uiso   1.00
H395   H     0.92981   0.01239   0.75206   0.00000  Uiso   1.00
H396   H     0.90828   0.00588   0.70556   0.00000  Uiso   1.00
C397   C     0.02558   0.77975   0.72827   0.00000  Uiso   1.00
C398   C     0.04507   0.75667   0.75192   0.00000  Uiso   1.00
C399   C     0.03658   0.81625   0.72447   0.00000  Uiso   1.00
C400   C     0.01284   0.87383   0.72340   0.00000  Uiso   1.00
C401   C     0.98480   0.89632   0.73759   0.00000  Uiso   1.00
C402   C    -0.00528   0.76884   0.70881   0.00000  Uiso   1.00
C403   C    -0.01688   0.73554   0.71345   0.00000  Uiso   1.00
C404   C     0.03318   0.72329   0.75711   0.00000  Uiso   1.00
H405   H     0.97945   0.78637   0.69045   0.00000  Uiso   1.00
H406   H     0.95919   0.72742   0.69853   0.00000  Uiso   1.00
H407   H    -0.00768   0.68735   0.74143   0.00000  Uiso   1.00
H408   H     0.06887   0.76497   0.76709   0.00000  Uiso   1.00
H409   H     0.03926   0.82088   0.69432   0.00000  Uiso   1.00
C410   C     0.95632   0.95503   0.73071   0.00000  Uiso   1.00
C411   C     0.98466   0.93151   0.71924   0.00000  Uiso   1.00
H412   H     0.03828   0.88507   0.73262   0.00000  Uiso   1.00
H413   H     0.95956   0.88399   0.73042   0.00000  Uiso   1.00
H414   H     0.98957   0.89926   0.76857   0.00000  Uiso   1.00
H415   H     0.00903   0.87289   0.69216   0.00000  Uiso   1.00
H416   H     0.06176   0.82093   0.74076   0.00000  Uiso   1.00
H417   H     0.93101   0.94355   0.72158   0.00000  Uiso   1.00
H418   H     0.95949   0.95851   0.76171   0.00000  Uiso   1.00
N419   N     0.95943  -0.01199   0.71243   0.00000  Uiso   1.00
N420   N     0.01085   0.83917   0.73845   0.00000  Uiso   1.00
C421   C     0.00202   0.71294   0.73780   0.00000  Uiso   1.00
C422   C     0.01681   0.53549   0.77434   0.00000  Uiso   1.00
C423   C    -0.01278   0.55626   0.77184   0.00000  Uiso   1.00
C424   C    -0.01412   0.58557   0.79444   0.00000  Uiso   1.00
C425   C     0.01380   0.59404   0.82005   0.00000  Uiso   1.00
C426   C     0.04336   0.57318   0.82331   0.00000  Uiso   1.00
C427   C     0.04482   0.54399   0.80019   0.00000  Uiso   1.00
C428   C     0.01800   0.50394   0.75019   0.00000  Uiso   1.00
H429   H     0.96524   0.54974   0.75235   0.00000  Uiso   1.00
H430   H    -0.03691   0.60166   0.79227   0.00000  Uiso   1.00
H431   H     0.01218   0.61675   0.83751   0.00000  Uiso   1.00
H432   H     0.06755   0.52776   0.80241   0.00000  Uiso   1.00
H433   H     0.00500   0.50960   0.72175   0.00000  Uiso   1.00
H434   H     0.04498   0.49650   0.74703   0.00000  Uiso   1.00
C435   C     0.96559   0.26870   0.71605   0.00000  Uiso   1.00
C436   C     0.94264   0.24452   0.69890   0.00000  Uiso   1.00
C437   C     0.95487   0.29354   0.74503   0.00000  Uiso   1.00
C438   C     0.96571   0.35453   0.75639   0.00000  Uiso   1.00
C439   C     0.97246   0.38716   0.73528   0.00000  Uiso   1.00
C440   C     0.99849   0.27095   0.70448   0.00000  Uiso   1.00
C441   C     1.00810   0.24991   0.67555   0.00000  Uiso   1.00
C442   C     0.95211   0.22338   0.66952   0.00000  Uiso   1.00
H443   H     1.01646   0.28948   0.71752   0.00000  Uiso   1.00
H444   H     1.03342   0.25204   0.66654   0.00000  Uiso   1.00
H445   H     0.99305   0.21034   0.63556   0.00000  Uiso   1.00
H446   H     0.91714   0.24295   0.70767   0.00000  Uiso   1.00
H447   H     0.97331   0.29122   0.77066   0.00000  Uiso   1.00
C448   C    -0.00396   0.44681   0.74181   0.00000  Uiso   1.00
C449   C     0.98304   0.41641   0.76246   0.00000  Uiso   1.00
H450   H     0.94582   0.35948   0.77574   0.00000  Uiso   1.00
H451   H    -0.00681   0.38174   0.71708   0.00000  Uiso   1.00
H452   H     0.94898   0.39501   0.71725   0.00000  Uiso   1.00
H453   H     0.99002   0.34641   0.77284   0.00000  Uiso   1.00
H454   H     0.92905   0.28744   0.75297   0.00000  Uiso   1.00
H455   H     0.02060   0.43919   0.73099   0.00000  Uiso   1.00
H456   H     0.97691   0.45402   0.71799   0.00000  Uiso   1.00
N457   N     0.00116   0.47589   0.76772   0.00000  Uiso   1.00
N458   N     0.95392   0.32809   0.72894   0.00000  Uiso   1.00
C459   C     0.98504   0.22635   0.65798   0.00000  Uiso   1.00
C460   C     0.73930   0.78881   0.02044   0.00000  Uiso   1.00
C461   C     0.74156   0.81013  -0.01075   0.00000  Uiso   1.00
C462   C     0.71857   0.83740  -0.01815   0.00000  Uiso   1.00
C463   C     0.69304   0.84373   0.00535   0.00000  Uiso   1.00
C464   C     0.69016   0.82308   0.03685   0.00000  Uiso   1.00
C465   C     0.71357   0.79556   0.04418   0.00000  Uiso   1.00
C466   C     0.76428   0.75947   0.02986   0.00000  Uiso   1.00
H467   H     0.76137   0.80628  -0.02918   0.00000  Uiso   1.00
H468   H     0.72090   0.85411  -0.04182   0.00000  Uiso   1.00
H469   H     0.67630   0.86553  -0.00046   0.00000  Uiso   1.00
H470   H     0.71223   0.77960   0.06868   0.00000  Uiso   1.00
H471   H     0.77922   0.76520   0.05733   0.00000  Uiso   1.00
H472   H     0.74950   0.73579   0.03349   0.00000  Uiso   1.00
C473   C     0.98817   0.70659   0.95390   0.00000  Uiso   1.00
C474   C     1.01336   0.69943   0.92972   0.00000  Uiso   1.00
C475   C     0.95924   0.73123   0.94116   0.00000  Uiso   1.00
C476   C     0.90200   0.74247   0.95872   0.00000  Uiso   1.00
C477   C     0.88188   0.75016   0.99212   0.00000  Uiso   1.00
C478   C     0.98973   0.68927   0.98840   0.00000  Uiso   1.00
C479   C     0.01592   0.66556   0.99840   0.00000  Uiso   1.00
C480   C     0.03984   0.67540   0.93961   0.00000  Uiso   1.00
H481   H     0.97047   0.69341   1.00747   0.00000  Uiso   1.00
H482   H     0.01652   0.65205   1.02473   0.00000  Uiso   1.00
H483   H     0.06054   0.63969   0.98251   0.00000  Uiso   1.00
H484   H     1.01167   0.71196   0.90269   0.00000  Uiso   1.00
H485   H     0.94381   0.71934   0.91664   0.00000  Uiso   1.00
C486   C     0.82249   0.75670   0.01266   0.00000  Uiso   1.00
C487   C     0.84349   0.74988   0.97986   0.00000  Uiso   1.00
H488   H     0.89758   0.76345   0.93778   0.00000  Uiso   1.00
H489   H     0.88809   0.73019   1.01389   0.00000  Uiso   1.00
H490   H     0.88924   0.77576   1.00426   0.00000  Uiso   1.00
H491   H     0.89305   0.71770   0.94556   0.00000  Uiso   1.00
H492   H     0.97013   0.75546   0.93154   0.00000  Uiso   1.00
H493   H     0.83015   0.73798   0.03540   0.00000  Uiso   1.00
H494   H     0.82739   0.78334   0.02328   0.00000  Uiso   1.00
N495   N     0.78622   0.75276  -0.00030   0.00000  Uiso   1.00
N496   N     0.93846   0.73978   0.97181   0.00000  Uiso   1.00
C497   C     0.04085   0.65864   0.97429   0.00000  Uiso   1.00
C498   C     0.56722   0.72551   0.24816   0.00000  Uiso   1.00
C499   C     0.57366   0.73663   0.28559   0.00000  Uiso   1.00
C500   C     0.59363   0.76560   0.29448   0.00000  Uiso   1.00
C501   C     0.60697   0.78396   0.26615   0.00000  Uiso   1.00
C502   C     0.60123   0.77282   0.22873   0.00000  Uiso   1.00
C503   C     0.58174   0.74330   0.21984   0.00000  Uiso   1.00
C504   C     0.54291   0.69646   0.23861   0.00000  Uiso   1.00
H505   H     0.56285   0.72310   0.30782   0.00000  Uiso   1.00
H506   H     0.59833   0.77414   0.32333   0.00000  Uiso   1.00
H507   H     0.62186   0.80677   0.27343   0.00000  Uiso   1.00
H508   H     0.57657   0.73522   0.19082   0.00000  Uiso   1.00
H509   H     0.51773   0.70429   0.24792   0.00000  Uiso   1.00
H510   H     0.53904   0.69177   0.20782   0.00000  Uiso   1.00
C511   C     0.48294   0.46630   0.30346   0.00000  Uiso   1.00
C512   C     0.46897   0.44753   0.33151   0.00000  Uiso   1.00
C513   C     0.51184   0.49079   0.31308   0.00000  Uiso   1.00
C514   C     0.52808   0.54799   0.29654   0.00000  Uiso   1.00
C515   C     0.51448   0.58453   0.28964   0.00000  Uiso   1.00
C516   C     0.46972   0.46200   0.26578   0.00000  Uiso   1.00
C517   C     0.44344   0.43877   0.25602   0.00000  Uiso   1.00
C518   C     0.44270   0.42388   0.32164   0.00000  Uiso   1.00
H519   H     0.47989   0.47663   0.24400   0.00000  Uiso   1.00
H520   H     0.43318   0.43578   0.22692   0.00000  Uiso   1.00
H521   H     0.40965   0.40177   0.27577   0.00000  Uiso   1.00
H522   H     0.47888   0.45078   0.36073   0.00000  Uiso   1.00
H523   H     0.53327   0.48301   0.29667   0.00000  Uiso   1.00
C524   C     0.52839   0.64294   0.26597   0.00000  Uiso   1.00
C525   C     0.54268   0.60779   0.27834   0.00000  Uiso   1.00
H526   H     0.54822   0.54802   0.32083   0.00000  Uiso   1.00
H527   H     0.49300   0.58395   0.26683   0.00000  Uiso   1.00
H528   H     0.50479   0.59487   0.31562   0.00000  Uiso   1.00
H529   H     0.53930   0.53858   0.27098   0.00000  Uiso   1.00
H530   H     0.52125   0.48954   0.34338   0.00000  Uiso   1.00
H531   H     0.50952   0.63954   0.24083   0.00000  Uiso   1.00
H532   H     0.51549   0.65489   0.28916   0.00000  Uiso   1.00
N533   N     0.55635   0.66492   0.25714   0.00000  Uiso   1.00
N534   N     0.49981   0.52583   0.30412   0.00000  Uiso   1.00
C535   C     0.43019   0.41956   0.28376   0.00000  Uiso   1.00
loop_
_geom_bond_atom_site_label_1
_geom_bond_atom_site_label_2
_geom_bond_distance
_geom_bond_site_symmetry_2
_ccdc_geom_bond_type
Pr0    O3      2.238   .     S
Pr0    O4      2.265   .     S
Pr0    O5      2.269   .     S
Pr0    O6      2.349   .     S
Pr0    O7      2.318   .     S
Pr0    O14     2.243   .     S
Pr0    O18     2.292   .     S
Pr1    O2      2.399   .     S
Pr1    O6      2.332   .     S
Pr1    O15     2.380   .     S
Pr1    O16     2.286   .     S
Pr1    O17     2.288   .     S
Pr1    O18     2.294   .     S
Pr1    O19     2.337   .     S
O2     C9      1.303   .     A
O3     C9      1.279   .     A
O4     C10     1.276   .     A
O5     C10     1.278   .     A
O6     C13     1.377   .     S
O7     C13     1.204   .     D
C8     O18     1.355   .     S
C8     O19     1.201   .     D
C8     C426    1.471   .     S
C9     C480    1.483   .     S
C10    C404    1.471   .     S
C11    O16     1.269   .     A
C11    O17     1.268   .     A
C11    C312    1.471   .     S
C12    O14     1.273   .     A
C12    O15     1.304   .     A
C12    C290    1.475   .     S
C13    C100    1.480   .     S
Pr20   O23     2.340   .     S
Pr20   O24     2.265   .     S
Pr20   O26     2.253   .     S
Pr20   O27     2.258   .     S
Pr20   O34     2.271   .     S
Pr20   O38     2.293   .     S
Pr20   O25     2.282   1_554 S
Pr21   O22     2.280   .     S
Pr21   O26     2.267   .     S
Pr21   O35     2.345   .     S
Pr21   O36     2.271   .     S
Pr21   O37     2.279   .     S
Pr21   O38     2.262   .     S
Pr21   O39     2.229   .     S
O22    C29     1.285   .     A
O23    C29     1.299   .     A
O24    C30     1.273   .     A
O25    Pr20    2.282   1_556 S
O25    C30     1.285   1_556 A
O26    C33     1.409   .     S
O27    C33     1.230   .     D
C28    O38     1.417   .     S
C28    O39     1.232   .     D
C28    C252    1.470   .     S
C29    C464    1.489   .     S
C30    O25     1.285   1_554 A
C30    C214    1.475   1_554 S
C31    O36     1.283   .     A
C31    O37     1.277   .     A
C31    C502    1.467   .     S
C32    O34     1.282   .     A
C32    O35     1.297   .     A
C32    C138    1.485   .     S
C33    C84     1.477   .     S
Pr40   O43     2.351   .     S
Pr40   O44     2.287   .     S
Pr40   O45     2.284   .     S
Pr40   O46     2.261   .     S
Pr40   O47     2.334   .     S
Pr40   O54     2.298   .     S
Pr40   O58     2.255   .     S
Pr41   O42     2.286   .     S
Pr41   O46     2.243   .     S
Pr41   O55     2.345   .     S
Pr41   O56     2.286   .     S
Pr41   O57     2.281   .     S
Pr41   O58     2.299   .     S
Pr41   O59     2.337   .     S
O42    C49     1.292   .     A
O43    C49     1.303   .     A
O44    C50     1.270   .     A
O45    C50     1.275   .     A
O46    C53     1.354   .     S
O47    C53     1.205   .     D
C48    O58     1.355   .     S
C48    O59     1.203   .     D
C48    C160    1.470   .     S
C49    C442    1.477   .     S
C50    C366    1.464   .     S
C51    O56     1.269   .     A
C51    O57     1.275   .     A
C51    C198    1.469   .     S
C52    O54     1.295   .     A
C52    O55     1.303   .     A
C52    C236    1.482   .     S
C53    C388    1.463   .     S
Pr60   O63     2.358   .     S
Pr60   O64     2.267   .     S
Pr60   O65     2.276   .     S
Pr60   O66     2.192   .     S
Pr60   O67     2.293   .     S
Pr60   O74     2.301   .     S
Pr60   O78     2.264   .     S
Pr61   O62     2.276   .     S
Pr61   O66     2.244   .     S
Pr61   O75     2.285   .     S
Pr61   O76     2.278   .     S
Pr61   O77     2.279   .     S
Pr61   O78     2.309   .     S
Pr61   O79     2.296   .     S
O62    C69     1.298   .     A
O63    C69     1.311   .     A
O64    C70     1.279   .     A
O65    C70     1.284   .     A
O66    C73     1.393   .     S
O67    C73     1.226   .     D
C68    O78     1.381   .     S
C68    O79     1.216   .     D
C68    C328    1.474   .     S
C69    C350    1.469   .     S
C70    C274    1.469   .     S
C71    O76     1.275   .     A
C71    O77     1.277   .     A
C71    C122    1.479   .     S
C72    O74     1.288   .     A
C72    O75     1.288   .     A
C72    C518    1.472   .     S
C73    C176    1.459   .     S
C80    C81     1.406   .     A
C80    C85     1.409   .     A
C80    C86     1.509   .     S
C81    C82     1.397   .     A
C81    H87     1.082   .     S
C82    C83     1.396   .     A
C82    H88     1.083   .     S
C83    C84     1.404   .     A
C83    H89     1.084   .     S
C84    C85     1.408   .     A
C85    H90     1.084   .     S
C86    H91     1.113   .     S
C86    H92     1.112   .     S
C86    N115    1.470   .     S
C93    C94     1.410   .     A
C93    C95     1.508   .     S
C93    C98     1.406   .     A
C94    C100    1.407   .     A
C94    H104    1.083   .     S
C95    H105    1.112   .     S
C95    H112    1.111   .     S
C95    N116    1.471   .     S
C96    C97     1.528   .     S
C96    H108    1.112   .     S
C96    H111    1.114   .     S
C96    N116    1.468   .     S
C97    C107    1.532   .     S
C97    H109    1.113   .     S
C97    H110    1.112   .     S
C98    C99     1.394   .     A
C98    H101    1.084   .     S
C99    H102    1.083   .     S
C99    C117    1.395   .     A
C100   C117    1.407   .     A
H103   C117    1.084   .     S
C106   H113    1.113   .     S
C106   H114    1.113   .     S
C106   N115    1.466   .     S
C106   C107    1.528   1_554 S
C107   C106    1.528   1_556 S
C118   C119    1.405   .     A
C118   C123    1.409   .     A
C118   C124    1.507   .     S
C119   C120    1.395   .     A
C119   H125    1.084   .     S
C120   C121    1.396   .     A
C120   H126    1.082   .     S
C121   C122    1.405   .     A
C121   H127    1.083   .     S
C122   C123    1.410   .     A
C123   H128    1.083   .     S
C124   H129    1.113   .     S
C124   H130    1.112   .     S
C124   N153    1.464   .     S
C131   C132    1.405   .     A
C131   C133    1.505   .     S
C131   C136    1.403   .     A
C132   C138    1.410   .     A
C132   H142    1.083   .     S
C133   H143    1.114   .     S
C133   H150    1.113   .     S
C133   N154    1.466   1_565 S
C134   C135    1.528   .     S
C134   H146    1.114   .     S
C134   H149    1.114   .     S
C134   N154    1.465   .     S
C135   C145    1.527   .     S
C135   H147    1.112   .     S
C135   H148    1.113   .     S
C136   C137    1.396   .     A
C136   H139    1.084   .     S
C137   H140    1.083   .     S
C137   C155    1.398   .     A
C138   C155    1.408   .     A
H141   C155    1.082   .     S
C144   C145    1.522   .     S
C144   H151    1.113   .     S
C144   H152    1.114   .     S
C144   N153    1.462   .     S
N154   C133    1.466   1_545 S
C156   C157    1.403   .     A
C156   C161    1.403   .     A
C156   C162    1.497   .     S
C157   C158    1.397   .     A
C157   H163    1.083   .     S
C158   C159    1.397   .     A
C158   H164    1.082   .     S
C159   C160    1.402   .     A
C159   H165    1.081   .     S
C160   C161    1.403   .     A
C161   H166    1.084   .     S
C162   H167    1.113   .     S
C162   H168    1.113   .     S
C162   N191    1.460   .     S
C169   C170    1.404   .     A
C169   C171    1.494   .     S
C169   C174    1.405   .     A
C170   C176    1.404   .     A
C170   H180    1.087   .     S
C171   H181    1.112   .     S
C171   H188    1.111   .     S
C171   N192    1.460   .     S
C172   C173    1.521   .     S
C172   H184    1.114   .     S
C172   H187    1.114   .     S
C172   N192    1.458   .     S
C173   C183    1.520   .     S
C173   H185    1.112   .     S
C173   H186    1.112   .     S
C174   C175    1.395   .     A
C174   H177    1.083   .     S
C175   H178    1.083   .     S
C175   C193    1.392   .     A
C176   C193    1.402   .     A
H179   C193    1.082   .     S
C182   C183    1.518   .     S
C182   H189    1.112   .     S
C182   H190    1.113   .     S
C182   N191    1.457   .     S
C194   C195    1.405   .     A
C194   C199    1.405   .     A
C194   C200    1.500   .     S
C195   C196    1.395   .     A
C195   H201    1.083   .     S
C196   C197    1.395   .     A
C196   H202    1.083   .     S
C197   C198    1.405   .     A
C197   H203    1.082   .     S
C198   C199    1.402   .     A
C199   H204    1.084   .     S
C200   H205    1.113   .     S
C200   H206    1.114   .     S
C200   N229    1.462   .     S
C207   C208    1.403   .     A
C207   C209    1.498   .     S
C207   C212    1.403   .     A
C208   C214    1.404   .     A
C208   H218    1.080   .     S
C209   H219    1.114   .     S
C209   H226    1.112   .     S
C209   N230    1.463   .     S
C210   C211    1.523   .     S
C210   H222    1.113   .     S
C210   H225    1.114   .     S
C210   N230    1.460   .     S
C211   C221    1.523   .     S
C211   H224    1.112   .     S
C211   H223    1.113   1_565 S
C212   C213    1.394   .     A
C212   H215    1.082   .     S
C213   H216    1.083   .     S
C213   C231    1.396   1_556 A
C214   C231    1.406   1_556 A
C214   C30     1.475   1_556 S
H217   C231    1.083   .     S
C220   H227    1.113   .     S
C220   N229    1.458   .     S
C220   C221    1.520   1_545 S
C220   H228    1.113   1_545 S
C221   C220    1.520   1_565 S
H223   C211    1.113   1_545 S
H228   C220    1.113   1_565 S
C231   C213    1.396   1_554 A
C231   C214    1.406   1_554 A
C232   C233    1.403   .     A
C232   C237    1.405   .     A
C232   C238    1.500   .     S
C233   C234    1.394   .     A
C233   H239    1.083   .     S
C234   C235    1.395   .     A
C234   H240    1.083   .     S
C235   C236    1.408   .     A
C235   H241    1.079   .     S
C236   C237    1.408   .     A
C237   H242    1.084   .     S
C238   H243    1.114   .     S
C238   H244    1.113   .     S
C238   N267    1.463   .     S
C245   C246    1.402   .     A
C245   C247    1.502   .     S
C245   C250    1.403   .     A
C246   C252    1.405   .     A
C246   H256    1.083   .     S
C247   H257    1.113   .     S
C247   H264    1.114   .     S
C247   N268    1.463   .     S
C248   C249    1.522   .     S
C248   H260    1.113   .     S
C248   H263    1.113   .     S
C248   N268    1.461   .     S
C249   C259    1.524   .     S
C249   H261    1.113   .     S
C249   H262    1.112   .     S
C250   C251    1.398   .     A
C250   H253    1.082   .     S
C251   H254    1.083   .     S
C251   C269    1.398   .     A
C252   C269    1.403   .     A
H255   C269    1.083   .     S
C258   H265    1.114   .     S
C258   H266    1.113   .     S
C258   N267    1.460   .     S
C258   C259    1.521   1_545 S
C259   C258    1.521   1_565 S
C270   C271    1.407   .     A
C270   C275    1.414   .     A
C270   C276    1.507   .     S
C271   C272    1.392   .     A
C271   H277    1.080   .     S
C272   C273    1.392   .     A
C272   H278    1.083   .     S
C273   C274    1.404   .     A
C273   H279    1.084   .     S
C274   C275    1.404   .     A
C275   H280    1.085   .     S
C276   H281    1.115   .     S
C276   H282    1.112   .     S
C276   N305    1.472   .     S
C283   C284    1.410   .     A
C283   C285    1.507   .     S
C283   C288    1.405   .     A
C284   C290    1.407   .     A
C284   H294    1.084   .     S
C285   H295    1.114   .     S
C285   H302    1.110   .     S
C285   N306    1.470   .     S
C286   C287    1.528   .     S
C286   H298    1.112   .     S
C286   H301    1.111   .     S
C286   N306    1.469   .     S
C287   C297    1.530   .     S
C287   H299    1.113   .     S
C287   H300    1.112   .     S
C288   C289    1.393   .     A
C288   H291    1.080   .     S
C289   H292    1.082   .     S
C289   C307    1.392   .     A
C290   C307    1.405   .     A
H293   C307    1.083   .     S
C296   C297    1.525   .     S
C296   H303    1.113   .     S
C296   H304    1.113   .     S
C296   N305    1.467   .     S
C308   C309    1.405   .     A
C308   C313    1.407   .     A
C308   C314    1.508   .     S
C309   H315    1.084   .     S
C309   C310    1.399   1_554 A
C310   C311    1.398   .     A
C310   H316    1.083   .     S
C310   C309    1.399   1_556 A
C311   C312    1.402   .     A
C311   H317    1.083   .     S
C312   C313    1.406   1_556 A
C313   H318    1.085   .     S
C313   C312    1.406   1_554 A
C314   H319    1.113   .     S
C314   H320    1.114   .     S
C314   N343    1.468   .     S
C321   C322    1.407   .     A
C321   C323    1.508   .     S
C321   C326    1.404   .     A
C322   C328    1.407   .     A
C322   H332    1.083   .     S
C323   H333    1.113   .     S
C323   H340    1.113   .     S
C323   N344    1.467   .     S
C324   C325    1.530   .     S
C324   H336    1.113   .     S
C324   H339    1.114   .     S
C324   N344    1.465   .     S
C325   C335    1.531   .     S
C325   H337    1.112   .     S
C325   H338    1.112   .     S
C326   C327    1.397   .     A
C326   H329    1.084   .     S
C327   H330    1.083   .     S
C327   C345    1.397   .     A
C328   C345    1.404   .     A
H331   C345    1.083   .     S
C334   C335    1.528   .     S
C334   H341    1.113   .     S
C334   H342    1.113   .     S
C334   N343    1.465   .     S
C346   C347    1.405   .     A
C346   C351    1.407   .     A
C346   C352    1.504   .     S
C347   C348    1.396   .     A
C347   H353    1.084   .     S
C348   C349    1.396   .     A
C348   H354    1.082   .     S
C349   C350    1.403   .     A
C349   H355    1.083   .     S
C350   C351    1.405   .     A
C351   H356    1.084   .     S
C352   H357    1.112   .     S
C352   H358    1.113   .     S
C352   N381    1.464   .     S
C359   C360    1.404   .     A
C359   C361    1.505   .     S
C359   C364    1.405   1_455 A
C360   H370    1.084   .     S
C360   C366    1.402   1_455 A
C361   H371    1.113   .     S
C361   H378    1.113   .     S
C361   N382    1.465   .     S
C362   C363    1.525   .     S
C362   H374    1.114   .     S
C362   H377    1.114   .     S
C362   N382    1.466   .     S
C363   C373    1.527   .     S
C363   H375    1.111   .     S
C363   H376    1.111   .     S
C364   C365    1.399   .     A
C364   C359    1.405   1_655 A
C364   H367    1.082   1_655 S
C365   H368    1.083   .     S
C365   C383    1.398   .     A
C366   C383    1.401   .     A
C366   C360    1.402   1_655 A
H367   C364    1.082   1_455 S
H369   C383    1.084   .     S
C372   C373    1.523   .     S
C372   H379    1.112   .     S
C372   H380    1.113   .     S
C372   N381    1.461   .     S
C384   C385    1.405   .     A
C384   C389    1.405   .     A
C384   C390    1.499   .     S
C385   C386    1.396   .     A
C385   H391    1.084   .     S
C386   C387    1.395   .     A
C386   H392    1.082   .     S
C387   C388    1.401   .     A
C387   H393    1.084   .     S
C388   C389    1.403   .     A
C389   H394    1.084   .     S
C390   H395    1.114   .     S
C390   H396    1.113   .     S
C390   N419    1.462   .     S
C397   C398    1.405   .     A
C397   C399    1.500   .     S
C397   C402    1.404   .     A
C398   C404    1.405   .     A
C398   H408    1.084   .     S
C399   H409    1.113   .     S
C399   H416    1.112   .     S
C399   N420    1.465   .     S
C400   H412    1.114   .     S
C400   H415    1.114   .     S
C400   N420    1.462   .     S
C400   C401    1.525   1_455 S
C401   C411    1.523   .     S
C401   H413    1.112   .     S
C401   H414    1.112   .     S
C401   C400    1.525   1_655 S
C402   C403    1.395   .     A
C402   H405    1.083   1_455 S
C403   C421    1.396   .     A
C403   H406    1.082   1_455 S
C404   C421    1.405   .     A
H405   C402    1.083   1_655 S
H406   C403    1.082   1_655 S
H407   C421    1.084   .     S
C410   C411    1.521   .     S
C410   H417    1.112   .     S
C410   H418    1.112   .     S
C410   N419    1.457   1_565 S
N419   C410    1.457   1_545 S
C422   C423    1.404   .     A
C422   C427    1.404   .     A
C422   C428    1.498   .     S
C423   C424    1.396   .     A
C423   H429    1.084   1_455 S
C424   C425    1.397   .     A
C424   H430    1.083   .     S
C425   C426    1.405   .     A
C425   H431    1.083   .     S
C426   C427    1.404   .     A
C427   H432    1.084   .     S
C428   H433    1.114   .     S
C428   H434    1.113   .     S
C428   N457    1.463   .     S
H429   C423    1.084   1_655 S
C435   C436    1.404   .     A
C435   C437    1.501   .     S
C435   C440    1.403   .     A
C436   C442    1.408   .     A
C436   H446    1.085   .     S
C437   H447    1.113   .     S
C437   H454    1.112   .     S
C437   N458    1.465   .     S
C438   C439    1.523   .     S
C438   H450    1.112   .     S
C438   H453    1.113   .     S
C438   N458    1.462   .     S
C439   C449    1.524   .     S
C439   H452    1.112   .     S
C439   H451    1.113   1_655 S
C440   C441    1.395   .     A
C440   H443    1.084   .     S
C441   H444    1.083   .     S
C441   C459    1.396   .     A
C442   C459    1.406   .     A
H445   C459    1.083   .     S
C448   H455    1.114   .     S
C448   N457    1.459   .     S
C448   C449    1.522   1_455 S
C448   H456    1.113   1_455 S
C449   C448    1.522   1_655 S
H451   C439    1.113   1_455 S
H456   C448    1.113   1_655 S
C460   C461    1.408   .     A
C460   C465    1.409   .     A
C460   C466    1.513   .     S
C461   C462    1.394   .     A
C461   H467    1.081   .     S
C462   C463    1.395   .     A
C462   H468    1.085   .     S
C463   C464    1.406   .     A
C463   H469    1.075   .     S
C464   C465    1.411   .     A
C465   H470    1.086   .     S
C466   H471    1.115   .     S
C466   H472    1.110   .     S
C466   N495    1.471   .     S
C473   C474    1.407   .     A
C473   C475    1.515   .     S
C473   C478    1.408   .     A
C474   H484    1.084   .     S
C474   C480    1.410   1_655 A
C475   H485    1.115   .     S
C475   H492    1.112   .     S
C475   N496    1.470   .     S
C476   C477    1.528   .     S
C476   H488    1.113   .     S
C476   H491    1.114   .     S
C476   N496    1.464   .     S
C477   C487    1.528   .     S
C477   H489    1.113   .     S
C477   H490    1.112   .     S
C478   H481    1.082   .     S
C478   C479    1.395   1_655 A
C479   H482    1.082   .     S
C479   C497    1.395   .     A
C479   C478    1.395   1_455 A
C480   C497    1.405   .     A
C480   C474    1.410   1_455 A
H483   C497    1.083   .     S
C486   H493    1.113   .     S
C486   H494    1.112   .     S
C486   N495    1.463   .     S
C486   C487    1.525   1_554 S
C487   C486    1.525   1_556 S
C498   C499    1.405   .     A
C498   C503    1.406   .     A
C498   C504    1.503   .     S
C499   C500    1.396   .     A
C499   H505    1.084   .     S
C500   C501    1.396   .     A
C500   H506    1.081   .     S
C501   C502    1.402   .     A
C501   H507    1.084   .     S
C502   C503    1.403   .     A
C503   H508    1.083   .     S
C504   H509    1.116   .     S
C504   H510    1.112   .     S
C504   N533    1.466   .     S
C511   C512    1.408   .     A
C511   C513    1.502   .     S
C511   C516    1.405   .     A
C512   C518    1.407   .     A
C512   H522    1.086   .     S
C513   H523    1.114   .     S
C513   H530    1.111   .     S
C513   N534    1.464   .     S
C514   C515    1.525   .     S
C514   H526    1.114   .     S
C514   H529    1.115   .     S
C514   N534    1.464   .     S
C515   C525    1.528   .     S
C515   H527    1.113   .     S
C515   H528    1.113   .     S
C516   C517    1.396   .     A
C516   H519    1.082   .     S
C517   H520    1.084   .     S
C517   C535    1.396   .     A
C518   C535    1.404   .     A
H521   C535    1.084   .     S
C524   C525    1.523   .     S
C524   H531    1.114   .     S
C524   H532    1.113   .     S
C524   N533    1.463   .     S
