data_lcy+N155+E28
_audit_creation_date              2025-01-21
_audit_creation_method            'Materials Studio'
_symmetry_space_group_name_H-M    'P1'
_symmetry_Int_Tables_number       1
_symmetry_cell_setting            triclinic
loop_
_symmetry_equiv_pos_as_xyz
  x,y,z
_cell_length_a                    32.7309
_cell_length_b                    32.3565
_cell_length_c                    33.2482
_cell_angle_alpha                 91.7580
_cell_angle_beta                  97.7455
_cell_angle_gamma                 96.6072
loop_
_atom_site_label
_atom_site_type_symbol
_atom_site_fract_x
_atom_site_fract_y
_atom_site_fract_z
_atom_site_U_iso_or_equiv
_atom_site_adp_type
_atom_site_occupancy
C0     C     0.18926   0.57881   0.81222   0.00000  Uiso   1.00
Ho1    Ho    0.14703   0.60422   0.86598   0.00000  Uiso   1.00
C2     C     0.03437   0.66158   0.96256   0.00000  Uiso   1.00
Ho3    Ho    0.08765   0.63170   0.92262   0.00000  Uiso   1.00
O4     O     0.14981   0.57446   0.80811   0.00000  Uiso   1.00
O5     O     0.20704   0.59551   0.84656   0.00000  Uiso   1.00
O6     O     0.11387   0.54199   0.87252   0.00000  Uiso   1.00
O7     O     0.08111   0.59542   0.86515   0.00000  Uiso   1.00
C8     C     0.07926   0.55280   0.86757   0.00000  Uiso   1.00
C9     C     0.16485   0.67400   0.92962   0.00000  Uiso   1.00
O10    O     0.15375   0.55607   0.91437   0.00000  Uiso   1.00
O11    O     0.11057   0.58004   0.95774   0.00000  Uiso   1.00
O12    O     0.07328   0.66635   0.97573   0.00000  Uiso   1.00
O13    O     0.02438   0.63813   0.93051   0.00000  Uiso   1.00
O14    O     0.13387   0.69007   0.93096   0.00000  Uiso   1.00
O15    O     0.15471   0.63263   0.92564   0.00000  Uiso   1.00
O16    O     0.08326   0.67985   0.87811   0.00000  Uiso   1.00
O17    O     0.13102   0.66295   0.83706   0.00000  Uiso   1.00
C18    C     0.10371   0.68617   0.84766   0.00000  Uiso   1.00
C19    C     0.13892   0.55687   0.94944   0.00000  Uiso   1.00
C20    C     0.58836   0.79013   0.18136   0.00000  Uiso   1.00
Ho21   Ho    0.61662   0.84799   0.13957   0.00000  Uiso   1.00
C22    C     0.68497   0.96128   0.03833   0.00000  Uiso   1.00
Ho23   Ho    0.65186   0.91195   0.08811   0.00000  Uiso   1.00
O24    O     0.57351   0.79476   0.14402   0.00000  Uiso   1.00
O25    O     0.61816   0.81842   0.19733   0.00000  Uiso   1.00
O26    O     0.59723   0.86230   0.07602   0.00000  Uiso   1.00
O27    O     0.60196   0.86063   0.07579   0.00000  Uiso   1.00
C28    C     0.56312   0.87370   0.06631   0.00000  Uiso   1.00
C29    C     0.69747   0.93163   0.15763   0.00000  Uiso   1.00
O30    O     0.57963   0.89882   0.15421   0.00000  Uiso   1.00
O31    O     0.60694   0.94837   0.11279   0.00000  Uiso   1.00
O32    O     0.69844   0.96345   0.07650   0.00000  Uiso   1.00
O33    O     0.65206   0.93613   0.02848   0.00000  Uiso   1.00
O34    O     0.70339   0.95046   0.12697   0.00000  Uiso   1.00
O35    O     0.66578   0.89915   0.14954   0.00000  Uiso   1.00
O36    O     0.69107   0.86382   0.07712   0.00000  Uiso   1.00
O37    O     0.66481   0.81340   0.11741   0.00000  Uiso   1.00
C38    C     0.69017   0.82742   0.09246   0.00000  Uiso   1.00
C39    C     0.58335   0.93626   0.14003   0.00000  Uiso   1.00
C40    C     0.79943   0.20944   0.58195   0.00000  Uiso   1.00
Ho41   Ho    0.85502   0.16219   0.60853   0.00000  Uiso   1.00
C42    C     0.94863   0.04008   0.66972   0.00000  Uiso   1.00
Ho43   Ho    0.91056   0.10108   0.64045   0.00000  Uiso   1.00
O44    O     0.80046   0.17268   0.56705   0.00000  Uiso   1.00
O45    O     0.82898   0.22150   0.61070   0.00000  Uiso   1.00
O46    O     0.80827   0.12756   0.56276   0.00000  Uiso   1.00
O47    O     0.86485   0.10182   0.58641   0.00000  Uiso   1.00
C48    C     0.82717   0.09717   0.56047   0.00000  Uiso   1.00
C49    C     0.91600   0.17082   0.68934   0.00000  Uiso   1.00
O50    O     0.90395   0.17599   0.56884   0.00000  Uiso   1.00
O51    O     0.95070   0.13263   0.59922   0.00000  Uiso   1.00
O52    O     0.95806   0.07760   0.68403   0.00000  Uiso   1.00
O53    O     0.92174   0.03645   0.63815   0.00000  Uiso   1.00
O54    O     0.92412   0.13760   0.70140   0.00000  Uiso   1.00
O55    O     0.91076   0.16818   0.64879   0.00000  Uiso   1.00
O56    O     0.85863   0.08296   0.67334   0.00000  Uiso   1.00
O57    O     0.81983   0.13549   0.65656   0.00000  Uiso   1.00
C58    C     0.82787   0.10341   0.67733   0.00000  Uiso   1.00
C59    C     0.93990   0.16081   0.57340   0.00000  Uiso   1.00
C60    C     0.38847   0.26823   0.29740   0.00000  Uiso   1.00
Ho61   Ho    0.36428   0.32953   0.33853   0.00000  Uiso   1.00
C62    C     0.34204   0.44621   0.45721   0.00000  Uiso   1.00
Ho63   Ho    0.35174   0.39524   0.39962   0.00000  Uiso   1.00
O64    O     0.40574   0.28275   0.33215   0.00000  Uiso   1.00
O65    O     0.35610   0.28539   0.28457   0.00000  Uiso   1.00
O66    O     0.41042   0.29793   0.37701   0.00000  Uiso   1.00
O67    O     0.40148   0.36033   0.39067   0.00000  Uiso   1.00
C68    C     0.42047   0.32615   0.40280   0.00000  Uiso   1.00
C69    C     0.32445   0.41066   0.32249   0.00000  Uiso   1.00
O70    O     0.40909   0.38096   0.32001   0.00000  Uiso   1.00
O71    O     0.39835   0.43171   0.36714   0.00000  Uiso   1.00
O72    O     0.31542   0.43887   0.42500   0.00000  Uiso   1.00
O73    O     0.37509   0.42876   0.45674   0.00000  Uiso   1.00
O74    O     0.34453   0.43615   0.34744   0.00000  Uiso   1.00
O75    O     0.31795   0.37252   0.33940   0.00000  Uiso   1.00
O76    O     0.31768   0.34272   0.42392   0.00000  Uiso   1.00
O77    O     0.31937   0.29312   0.37368   0.00000  Uiso   1.00
C78    C     0.30555   0.30652   0.40621   0.00000  Uiso   1.00
C79    C     0.41734   0.41846   0.33765   0.00000  Uiso   1.00
C80    C     0.45755   0.79776   0.00161   0.00000  Uiso   1.00
C81    C     0.47503   0.78835   0.04069   0.00000  Uiso   1.00
C82    C     0.51005   0.81260   0.06063   0.00000  Uiso   1.00
C83    C     0.52927   0.84632   0.04193   0.00000  Uiso   1.00
C84    C     0.51291   0.85525   1.00238   0.00000  Uiso   1.00
C85    C     0.47723   0.83099   0.98220   0.00000  Uiso   1.00
C86    C     0.41688   0.77539   0.98382   0.00000  Uiso   1.00
N87    N     0.39291   0.79055   0.95230   0.00000  Uiso   1.00
N88    N     0.35385   0.77343   0.94064   0.00000  Uiso   1.00
C89    C     0.33734   0.74058   0.96017   0.00000  Uiso   1.00
N90    N     0.36190   0.72467  -0.00944   0.00000  Uiso   1.00
N91    N     0.40072   0.74170   0.00217   0.00000  Uiso   1.00
C92    C     0.29274   0.72436   0.95149   0.00000  Uiso   1.00
C93    C     0.27557   0.69583   0.97756   0.00000  Uiso   1.00
C94    C     0.23356   0.68082   0.97069   0.00000  Uiso   1.00
C95    C     0.20767   0.69414   0.93791   0.00000  Uiso   1.00
C96    C     0.22406   0.72307   0.91205   0.00000  Uiso   1.00
C97    C     0.26648   0.73813   0.91877   0.00000  Uiso   1.00
H98    H     0.46029   0.76366   0.05708   0.00000  Uiso   1.00
H99    H     0.52006   0.80601   0.09170   0.00000  Uiso   1.00
H100   H     0.52718   0.88133   0.98762   0.00000  Uiso   1.00
H101   H     0.46444   0.83903   0.95206   0.00000  Uiso   1.00
H102   H     0.29442   0.68502   0.00354   0.00000  Uiso   1.00
H103   H     0.22112   0.65873   0.99114   0.00000  Uiso   1.00
H104   H     0.20440   0.73298   0.88616   0.00000  Uiso   1.00
H105   H     0.27867   0.76011   0.89818   0.00000  Uiso   1.00
C106   C     0.44413   0.17075   0.24155   0.00000  Uiso   1.00
C107   C     0.40308   0.17758   0.22677   0.00000  Uiso   1.00
C108   C     0.38466   0.21015   0.24354   0.00000  Uiso   1.00
C109   C     0.40684   0.23579   0.27585   0.00000  Uiso   1.00
C110   C     0.44801   0.22938   0.28998   0.00000  Uiso   1.00
C111   C     0.46639   0.19753   0.27304   0.00000  Uiso   1.00
C112   C     0.46392   0.13566   0.22539   0.00000  Uiso   1.00
N113   N     0.50482   0.13272   0.23733   0.00000  Uiso   1.00
N114   N     0.52267   0.10077   0.22441   0.00000  Uiso   1.00
C115   C     0.50046   0.07003   0.19906   0.00000  Uiso   1.00
N116   N     0.45954   0.07300   0.18686   0.00000  Uiso   1.00
N117   N     0.44166   0.10512   0.19974   0.00000  Uiso   1.00
C118   C     0.52096   0.03440   0.18494   0.00000  Uiso   1.00
C119   C     0.49780   0.99911   0.16352   0.00000  Uiso   1.00
C120   C     0.51779   0.96622   0.14985   0.00000  Uiso   1.00
C121   C     0.56118   0.96830   0.15699   0.00000  Uiso   1.00
C122   C     0.58425   1.00289   0.17899   0.00000  Uiso   1.00
C123   C     0.56443   0.03544   0.19300   0.00000  Uiso   1.00
H124   H     0.38512   0.15757   0.20252   0.00000  Uiso   1.00
H125   H     0.35299   0.21466   0.23208   0.00000  Uiso   1.00
H126   H     0.46617   0.24893   0.31470   0.00000  Uiso   1.00
H127   H     0.49794   0.19349   0.28536   0.00000  Uiso   1.00
H128   H     0.46424   0.99689   0.15736   0.00000  Uiso   1.00
H129   H     0.49948   0.93967   0.13300   0.00000  Uiso   1.00
H130   H     0.61777   1.00471   0.18541   0.00000  Uiso   1.00
H131   H     0.58329   0.06169   0.20989   0.00000  Uiso   1.00
C132   C     0.69374   0.27053   0.53906   0.00000  Uiso   1.00
C133   C     0.71112   0.27553   0.58025   0.00000  Uiso   1.00
C134   C     0.74749   0.25798   0.59407   0.00000  Uiso   1.00
C135   C     0.76584   0.23399   0.56721   0.00000  Uiso   1.00
C136   C     0.74852   0.22907   0.52627   0.00000  Uiso   1.00
C137   C     0.71337   0.24772   0.51219   0.00000  Uiso   1.00
C138   C     0.65497   0.28775   0.52331   0.00000  Uiso   1.00
N139   N     0.64691   0.29434   0.48313   0.00000  Uiso   1.00
N140   N     0.61081   0.30604   0.46735   0.00000  Uiso   1.00
C141   C     0.58086   0.31155   0.49085   0.00000  Uiso   1.00
N142   N     0.58903   0.30568   0.53137   0.00000  Uiso   1.00
N143   N     0.62548   0.29411   0.54732   0.00000  Uiso   1.00
C144   C     0.53968   0.32115   0.47126   0.00000  Uiso   1.00
C145   C     0.50441   0.31859   0.49172   0.00000  Uiso   1.00
C146   C     0.46494   0.32241   0.47035   0.00000  Uiso   1.00
C147   C     0.46068   0.32882   0.42859   0.00000  Uiso   1.00
C148   C     0.49593   0.33361   0.40889   0.00000  Uiso   1.00
C149   C     0.53487   0.32992   0.42985   0.00000  Uiso   1.00
H150   H     0.69663   0.29287   0.60164   0.00000  Uiso   1.00
H151   H     0.76025   0.26142   0.62593   0.00000  Uiso   1.00
H152   H     0.76192   0.21011   0.50524   0.00000  Uiso   1.00
H153   H     0.70086   0.24310   0.48030   0.00000  Uiso   1.00
H154   H     0.50701   0.31200   0.52364   0.00000  Uiso   1.00
H155   H     0.43788   0.31934   0.48601   0.00000  Uiso   1.00
H156   H     0.49310   0.33889   0.37665   0.00000  Uiso   1.00
H157   H     0.56096   0.33227   0.41286   0.00000  Uiso   1.00
C158   C     0.77608   0.06453   0.78320   0.00000  Uiso   1.00
C159   C     0.77813   0.10657   0.77309   0.00000  Uiso   1.00
C160   C     0.79115   0.11900   0.73634   0.00000  Uiso   1.00
C161   C     0.80305   0.08975   0.70953   0.00000  Uiso   1.00
C162   C     0.79873   0.04747   0.71863   0.00000  Uiso   1.00
C163   C     0.78508   0.03495   0.75480   0.00000  Uiso   1.00
C164   C     0.76662   0.05147   0.82370   0.00000  Uiso   1.00
N165   N     0.76508   1.01079   0.83272   0.00000  Uiso   1.00
N166   N     0.75702   0.99861   0.86895   0.00000  Uiso   1.00
C167   C     0.75032   0.02649   0.89801   0.00000  Uiso   1.00
N168   N     0.75231   0.06738   0.88926   0.00000  Uiso   1.00
N169   N     0.76043   0.07962   0.85286   0.00000  Uiso   1.00
C170   C     0.73848   1.01146   0.93713   0.00000  Uiso   1.00
C171   C     0.73168   0.03885   0.96879   0.00000  Uiso   1.00
C172   C     0.71660   1.02314   1.00369   0.00000  Uiso   1.00
C173   C     0.70754   0.98001   0.00674   0.00000  Uiso   1.00
C174   C     0.71585   0.95293   0.97603   0.00000  Uiso   1.00
C175   C     0.73154   0.96836   0.94198   0.00000  Uiso   1.00
H176   H     0.77127   0.13004   0.79429   0.00000  Uiso   1.00
H177   H     0.79465   0.15178   0.73024   0.00000  Uiso   1.00
H178   H     0.80791   0.02421   0.69863   0.00000  Uiso   1.00
H179   H     0.78350   1.00221   0.76124   0.00000  Uiso   1.00
H180   H     0.73668   0.07223   0.96608   0.00000  Uiso   1.00
H181   H     0.71022   0.04445   0.02717   0.00000  Uiso   1.00
H182   H     0.70914   0.91948   0.97791   0.00000  Uiso   1.00
H183   H     0.73652   0.94618   0.91864   0.00000  Uiso   1.00
C184   C     0.79803   0.03153   0.44483   0.00000  Uiso   1.00
C185   C     0.82802   0.06659   0.45173   0.00000  Uiso   1.00
C186   C     0.83866   0.08583   0.49025   0.00000  Uiso   1.00
C187   C     0.81979   0.07059   0.52304   0.00000  Uiso   1.00
C188   C     0.79056   0.03488   0.51707   0.00000  Uiso   1.00
C189   C     0.78016   1.01500   0.47814   0.00000  Uiso   1.00
C190   C     0.78476   0.01455   0.40249   0.00000  Uiso   1.00
N191   N     0.76135   0.97705   0.39397   0.00000  Uiso   1.00
N192   N     0.74955   0.96294   0.35550   0.00000  Uiso   1.00
C193   C     0.76051   0.98577   0.32404   0.00000  Uiso   1.00
N194   N     0.78370   0.02323   0.33273   0.00000  Uiso   1.00
N195   N     0.79555   0.03723   0.37103   0.00000  Uiso   1.00
C196   C     0.74707   0.97068   0.28104   0.00000  Uiso   1.00
C197   C     0.75672   0.99566   0.24874   0.00000  Uiso   1.00
C198   C     0.74232   0.98227   0.20833   0.00000  Uiso   1.00
C199   C     0.71804   0.94375   0.19933   0.00000  Uiso   1.00
C200   C     0.70954   0.91820   0.23143   0.00000  Uiso   1.00
C201   C     0.72397   0.93144   0.27179   0.00000  Uiso   1.00
H202   H     0.84274   0.07991   0.42706   0.00000  Uiso   1.00
H203   H     0.86029   0.11412   0.49399   0.00000  Uiso   1.00
H204   H     0.77505   1.02327   0.54200   0.00000  Uiso   1.00
H205   H     0.75727   0.98771   0.47386   0.00000  Uiso   1.00
H206   H     0.77476   0.02596   0.25467   0.00000  Uiso   1.00
H207   H     0.74889   1.00253   0.18417   0.00000  Uiso   1.00
H208   H     0.69078   0.88822   0.22560   0.00000  Uiso   1.00
H209   H     0.71641   0.91120   0.29581   0.00000  Uiso   1.00
C210   C     0.30753   0.49594   0.56640   0.00000  Uiso   1.00
C211   C     0.28447   0.50169   0.52845   0.00000  Uiso   1.00
C212   C     0.29734   0.48814   0.49247   0.00000  Uiso   1.00
C213   C     0.33351   0.46874   0.49368   0.00000  Uiso   1.00
C214   C     0.35801   0.46527   0.53127   0.00000  Uiso   1.00
C215   C     0.34502   0.47855   0.56736   0.00000  Uiso   1.00
C216   C     0.29153   0.50681   0.60443   0.00000  Uiso   1.00
N217   N     0.31438   0.50461   0.64151   0.00000  Uiso   1.00
N218   N     0.29952   0.51482   0.67544   0.00000  Uiso   1.00
C219   C     0.26117   0.52743   0.67350   0.00000  Uiso   1.00
N220   N     0.23828   0.52895   0.63649   0.00000  Uiso   1.00
N221   N     0.25307   0.51884   0.60273   0.00000  Uiso   1.00
C222   C     0.24455   0.54092   0.71023   0.00000  Uiso   1.00
C223   C     0.20701   0.55843   0.70546   0.00000  Uiso   1.00
C224   C     0.19049   0.57185   0.73903   0.00000  Uiso   1.00
C225   C     0.21056   0.56749   0.77831   0.00000  Uiso   1.00
C226   C     0.24837   0.55060   0.78372   0.00000  Uiso   1.00
C227   C     0.26535   0.53725   0.74970   0.00000  Uiso   1.00
H228   H     0.25571   0.51548   0.52635   0.00000  Uiso   1.00
H229   H     0.27810   0.49124   0.46378   0.00000  Uiso   1.00
H230   H     0.38600   0.45010   0.53297   0.00000  Uiso   1.00
H231   H     0.36353   0.47362   0.59595   0.00000  Uiso   1.00
H232   H     0.19008   0.56185   0.67567   0.00000  Uiso   1.00
H233   H     0.16170   0.58568   0.73420   0.00000  Uiso   1.00
H234   H     0.26398   0.54667   0.81394   0.00000  Uiso   1.00
H235   H     0.29427   0.52367   0.75427   0.00000  Uiso   1.00
C236   C     0.19706   0.50121   0.05474   0.00000  Uiso   1.00
C237   C     0.18807   0.47737   0.01764   0.00000  Uiso   1.00
C238   C     0.16939   0.49461   0.98222   0.00000  Uiso   1.00
C239   C     0.15854   0.53541   0.98419   0.00000  Uiso   1.00
C240   C     0.16790   0.55876   1.02111   0.00000  Uiso   1.00
C241   C     0.18694   0.54217   0.05563   0.00000  Uiso   1.00
C242   C     0.21670   0.48496   0.09302   0.00000  Uiso   1.00
N243   N     0.22460   0.51032   0.12710   0.00000  Uiso   1.00
N244   N     0.24170   0.49709   0.16204   0.00000  Uiso   1.00
C245   C     0.25174   0.45774   0.16479   0.00000  Uiso   1.00
N246   N     0.24415   0.43206   0.13071   0.00000  Uiso   1.00
N247   N     0.22694   0.44543   0.09544   0.00000  Uiso   1.00
C248   C     0.27039   0.44419   0.20462   0.00000  Uiso   1.00
C249   C     0.27891   0.40301   0.21050   0.00000  Uiso   1.00
C250   C     0.29696   0.39151   0.24874   0.00000  Uiso   1.00
C251   C     0.30668   0.42128   0.28144   0.00000  Uiso   1.00
C252   C     0.29744   0.46201   0.27563   0.00000  Uiso   1.00
C253   C     0.27915   0.47315   0.23796   0.00000  Uiso   1.00
H254   H     0.19535   0.44560   0.01615   0.00000  Uiso   1.00
H255   H     0.16281   0.47601   0.95392   0.00000  Uiso   1.00
H256   H     0.16106   0.59068   1.02307   0.00000  Uiso   1.00
H257   H     0.19365   0.56193   0.08316   0.00000  Uiso   1.00
H258   H     0.27101   0.37971   0.18582   0.00000  Uiso   1.00
H259   H     0.30331   0.35958   0.25276   0.00000  Uiso   1.00
H260   H     0.30308   0.48502   0.30080   0.00000  Uiso   1.00
H261   H     0.27136   0.50460   0.23533   0.00000  Uiso   1.00
C262   C     0.19592   0.25212   0.45231   0.00000  Uiso   1.00
C263   C     0.22564   0.28083   0.47609   0.00000  Uiso   1.00
C264   C     0.26284   0.29517   0.46227   0.00000  Uiso   1.00
C265   C     0.27155   0.28191   0.42392   0.00000  Uiso   1.00
C266   C     0.24310   0.25137   0.40098   0.00000  Uiso   1.00
C267   C     0.20590   0.23606   0.41537   0.00000  Uiso   1.00
C268   C     0.15472   0.24058   0.46609   0.00000  Uiso   1.00
N269   N     0.12747   0.20828   0.44804   0.00000  Uiso   1.00
N270   N     0.09140   0.19760   0.46187   0.00000  Uiso   1.00
C271   C     0.08087   0.21892   0.49414   0.00000  Uiso   1.00
N272   N     0.10769   0.25181   0.51139   0.00000  Uiso   1.00
N273   N     0.14368   0.26237   0.49770   0.00000  Uiso   1.00
C274   C     0.04202   0.20566   0.51169   0.00000  Uiso   1.00
C275   C     0.03146   0.22899   0.54446   0.00000  Uiso   1.00
C276   C     0.99666   0.21539   0.56298   0.00000  Uiso   1.00
C277   C     0.97192   0.17805   0.54945   0.00000  Uiso   1.00
C278   C     0.98148   0.15506   0.51631   0.00000  Uiso   1.00
C279   C     0.01615   0.16878   0.49745   0.00000  Uiso   1.00
H280   H     0.21986   0.29324   0.50516   0.00000  Uiso   1.00
H281   H     0.28401   0.31871   0.48084   0.00000  Uiso   1.00
H282   H     0.24848   0.24118   0.37105   0.00000  Uiso   1.00
H283   H     0.18428   0.21298   0.39680   0.00000  Uiso   1.00
H284   H     0.05071   0.25730   0.55654   0.00000  Uiso   1.00
H285   H     0.98990   0.23324   0.58889   0.00000  Uiso   1.00
H286   H     0.96258   0.12606   0.50577   0.00000  Uiso   1.00
H287   H     0.02336   0.14986   0.47254   0.00000  Uiso   1.00
C288   C     0.98647   0.93066   0.72668   0.00000  Uiso   1.00
C289   C     0.96634   0.92837   0.68646   0.00000  Uiso   1.00
C290   C     0.95528   0.96431   0.66783   0.00000  Uiso   1.00
C291   C     0.96412   0.00333   0.68885   0.00000  Uiso   1.00
C292   C     0.98373   0.00575   0.72916   0.00000  Uiso   1.00
C293   C     0.99468   0.96970   0.74795   0.00000  Uiso   1.00
C294   C     1.00086   0.89302   0.74551   0.00000  Uiso   1.00
N295   N     1.02086   0.89523   0.78417   0.00000  Uiso   1.00
N296   N     0.03767   0.86264   0.79972   0.00000  Uiso   1.00
C297   C     0.03532   0.82647   0.77722   0.00000  Uiso   1.00
N298   N     1.01408   0.82378   0.73904   0.00000  Uiso   1.00
N299   N     0.99725   0.85637   0.72349   0.00000  Uiso   1.00
C300   C     0.05682   0.79140   0.79343   0.00000  Uiso   1.00
C301   C     0.05526   0.75415   0.76986   0.00000  Uiso   1.00
C302   C     0.07436   0.72051   0.78595   0.00000  Uiso   1.00
C303   C     0.09490   0.72358   0.82589   0.00000  Uiso   1.00
C304   C     0.09753   0.76109   0.84892   0.00000  Uiso   1.00
C305   C     0.07908   0.79480   0.83283   0.00000  Uiso   1.00
H306   H     0.95919   0.89885   0.66923   0.00000  Uiso   1.00
H307   H     0.93953   0.96153   0.63690   0.00000  Uiso   1.00
H308   H     0.98984   0.03530   0.74637   0.00000  Uiso   1.00
H309   H     1.00979   0.97248   0.77909   0.00000  Uiso   1.00
H310   H     0.03808   0.75045   0.73951   0.00000  Uiso   1.00
H311   H     0.07065   0.69134   0.76827   0.00000  Uiso   1.00
H312   H     0.11210   0.76338   0.88030   0.00000  Uiso   1.00
H313   H     0.08110   0.82299   0.85184   0.00000  Uiso   1.00
C314   C    -0.01121   0.45147   0.82439   0.00000  Uiso   1.00
C315   C    -0.00349   0.48541   0.79979   0.00000  Uiso   1.00
C316   C     0.02262   0.52103   0.81572   0.00000  Uiso   1.00
C317   C     0.04222   0.52284   0.85602   0.00000  Uiso   1.00
C318   C     0.03280   0.49029   0.88121   0.00000  Uiso   1.00
C319   C     0.00553   0.45524   0.86580   0.00000  Uiso   1.00
C320   C     0.96858   0.41063   0.80603   0.00000  Uiso   1.00
N321   N     0.96387   0.37695   0.82922   0.00000  Uiso   1.00
N322   N     0.95070   0.33910   0.81220   0.00000  Uiso   1.00
C323   C     0.94179   0.33336   0.77120   0.00000  Uiso   1.00
N324   N     0.94576   0.36717   0.74812   0.00000  Uiso   1.00
N325   N     0.95892   0.40495   0.76511   0.00000  Uiso   1.00
C326   C     0.93137   0.29100   0.75155   0.00000  Uiso   1.00
C327   C     0.92466   0.28646   0.70900   0.00000  Uiso   1.00
C328   C     0.91841   0.24712   0.68973   0.00000  Uiso   1.00
C329   C     0.91917   0.21107   0.71220   0.00000  Uiso   1.00
C330   C     0.92467   0.21505   0.75471   0.00000  Uiso   1.00
C331   C     0.93060   0.25484   0.77435   0.00000  Uiso   1.00
H332   H    -0.01511   0.48347   0.76756   0.00000  Uiso   1.00
H333   H     0.03062   0.54534   0.79543   0.00000  Uiso   1.00
H334   H     0.04824   0.49108   0.91216   0.00000  Uiso   1.00
H335   H     0.99994   0.42991   0.88568   0.00000  Uiso   1.00
H336   H     0.92533   0.31326   0.69018   0.00000  Uiso   1.00
H337   H     0.91418   0.24517   0.65684   0.00000  Uiso   1.00
H338   H     0.92484   0.18764   0.77256   0.00000  Uiso   1.00
H339   H     0.93554   0.25728   0.80726   0.00000  Uiso   1.00
C340   C     0.79095   0.76952   0.05706   0.00000  Uiso   1.00
C341   C     0.78271   0.76762   0.09748   0.00000  Uiso   1.00
C342   C     0.74781   0.78367   0.10889   0.00000  Uiso   1.00
C343   C     0.72076   0.80159   0.08003   0.00000  Uiso   1.00
C344   C     0.72791   0.80158   0.03938   0.00000  Uiso   1.00
C345   C     0.76240   0.78543   0.02790   0.00000  Uiso   1.00
C346   C     0.82994   0.75722   0.04526   0.00000  Uiso   1.00
N347   N     0.83685   0.75924   1.00602   0.00000  Uiso   1.00
N348   N     0.87192   0.74887   0.99488   0.00000  Uiso   1.00
C349   C     0.90180   0.73622   1.02251   0.00000  Uiso   1.00
N350   N     0.89525   0.73472   0.06199   0.00000  Uiso   1.00
N351   N     0.86003   0.74516   0.07318   0.00000  Uiso   1.00
C352   C     0.93866   0.72087   1.00860   0.00000  Uiso   1.00
C353   C     0.97110   0.70819   0.03602   0.00000  Uiso   1.00
C354   C     0.00356   0.69001   1.02148   0.00000  Uiso   1.00
C355   C     0.00333   0.68363   0.97955   0.00000  Uiso   1.00
C356   C     0.97171   0.69743   0.95242   0.00000  Uiso   1.00
C357   C     0.94007   0.71624   0.96670   0.00000  Uiso   1.00
H358   H     0.80401   0.75525   0.12054   0.00000  Uiso   1.00
H359   H     0.74370   0.78476   0.14061   0.00000  Uiso   1.00
H360   H     0.70782   0.81603   1.01680   0.00000  Uiso   1.00
H361   H     0.76746   0.78700   0.99639   0.00000  Uiso   1.00
H362   H     0.97096   0.71142   0.06853   0.00000  Uiso   1.00
H363   H     0.02768   0.67935   0.04281   0.00000  Uiso   1.00
H364   H     0.97114   0.69331   0.91990   0.00000  Uiso   1.00
H365   H     0.91594   0.72595   0.94465   0.00000  Uiso   1.00
C366   C     0.54743   0.67671   0.23562   0.00000  Uiso   1.00
C367   C     0.57552   0.70733   0.25917   0.00000  Uiso   1.00
C368   C     0.58857   0.74517   0.24237   0.00000  Uiso   1.00
C369   C     0.57279   0.75311   0.20230   0.00000  Uiso   1.00
C370   C     0.54357   0.72310   0.17975   0.00000  Uiso   1.00
C371   C     0.53174   0.68521   0.19581   0.00000  Uiso   1.00
C372   C     0.53423   0.63573   0.25138   0.00000  Uiso   1.00
N373   N     0.51443   0.60433   0.22533   0.00000  Uiso   1.00
N374   N     0.50178   0.56739   0.23872   0.00000  Uiso   1.00
C375   C     0.50842   0.56016   0.27885   0.00000  Uiso   1.00
N376   N     0.52817   0.59159   0.30506   0.00000  Uiso   1.00
N377   N     0.54099   0.62861   0.29161   0.00000  Uiso   1.00
C378   C     0.49115   0.52018   0.29387   0.00000  Uiso   1.00
C379   C     0.49117   0.51593   0.33568   0.00000  Uiso   1.00
C380   C     0.46934   0.48115   0.34989   0.00000  Uiso   1.00
C381   C     0.44714   0.44976   0.32265   0.00000  Uiso   1.00
C382   C     0.44916   0.45248   0.28100   0.00000  Uiso   1.00
C383   C     0.47115   0.48741   0.26669   0.00000  Uiso   1.00
H384   H     0.58822   0.70159   0.29002   0.00000  Uiso   1.00
H385   H     0.61160   0.76764   0.26010   0.00000  Uiso   1.00
H386   H     0.53074   0.72830   0.14884   0.00000  Uiso   1.00
H387   H     0.51034   0.66233   0.17679   0.00000  Uiso   1.00
H388   H     0.50642   0.54044   0.35736   0.00000  Uiso   1.00
H389   H     0.46815   0.47983   0.38220   0.00000  Uiso   1.00
H390   H     0.43139   0.42922   0.25938   0.00000  Uiso   1.00
H391   H     0.47101   0.48948   0.23424   0.00000  Uiso   1.00
loop_
_geom_bond_atom_site_label_1
_geom_bond_atom_site_label_2
_geom_bond_distance
_geom_bond_site_symmetry_2
_ccdc_geom_bond_type
C0     O4      1.271   .     A
C0     O5      1.282   .     A
C0     C225    1.462   .     S
Ho1    O4      2.143   .     S
Ho1    O5      2.194   .     S
Ho1    O6      2.206   .     S
Ho1    O7      2.140   .     S
Ho1    O10     2.280   .     S
Ho1    O15     2.132   .     S
Ho1    O17     2.240   .     S
C2     O12     1.280   .     A
C2     O13     1.272   .     A
C2     C355    1.469   .     S
Ho3    O7      2.184   .     S
Ho3    O11     2.212   .     S
Ho3    O12     2.195   .     S
Ho3    O13     2.154   .     S
Ho3    O14     2.265   .     S
Ho3    O15     2.180   .     S
Ho3    O16     2.185   .     S
O6     C8      1.215   .     D
O7     C8      1.379   .     S
C8     C317    1.462   .     S
C9     O14     1.197   .     D
C9     O15     1.340   .     S
C9     C95     1.462   .     S
O10    C19     1.323   .     A
O11    C19     1.310   .     A
O16    C18     1.296   .     A
O17    C18     1.308   .     A
C18    C303    1.466   .     S
C19    C239    1.477   .     S
C20    O24     1.290   .     A
C20    O25     1.302   .     A
C20    C369    1.478   .     S
Ho21   O24     2.119   .     S
Ho21   O25     2.169   .     S
Ho21   O26     2.202   .     S
Ho21   O27     2.172   .     S
Ho21   O30     2.231   .     S
Ho21   O35     2.156   .     S
Ho21   O37     2.225   .     S
C22    O32     1.283   .     A
C22    O33     1.271   .     A
C22    C173    1.470   .     S
Ho23   O27     2.179   .     S
Ho23   O31     2.211   .     S
Ho23   O32     2.205   .     S
Ho23   O33     2.154   .     S
Ho23   O34     2.213   .     S
Ho23   O35     2.096   .     S
Ho23   O36     2.181   .     S
O26    C28     1.221   .     D
O27    C28     1.385   .     S
C28    C83     1.469   .     S
C29    O34     1.230   .     D
C29    O35     1.382   .     S
C29    C199    1.478   .     S
O30    C39     1.312   .     A
O31    C39     1.308   .     A
O36    C38     1.296   .     A
O37    C38     1.306   .     A
C38    C343    1.468   .     S
C39    C121    1.472   .     S
C40    O44     1.280   .     A
C40    O45     1.282   .     A
C40    C135    1.469   .     S
Ho41   O44     2.170   .     S
Ho41   O45     2.191   .     S
Ho41   O46     2.188   .     S
Ho41   O47     2.140   .     S
Ho41   O50     2.224   .     S
Ho41   O55     2.098   .     S
Ho41   O57     2.230   .     S
C42    O52     1.278   .     A
C42    O53     1.269   .     A
C42    C291    1.474   .     S
Ho43   O47     2.180   .     S
Ho43   O51     2.216   .     S
Ho43   O52     2.197   .     S
Ho43   O53     2.165   .     S
Ho43   O54     2.278   .     S
Ho43   O55     2.180   .     S
Ho43   O56     2.177   .     S
O46    C48     1.226   .     D
O47    C48     1.397   .     S
C48    C187    1.467   .     S
C49    O54     1.205   .     D
C49    O55     1.335   .     S
C49    C329    1.473   .     S
O50    C59     1.318   .     A
O51    C59     1.317   .     A
O56    C58     1.286   .     A
O57    C58     1.297   .     A
C58    C161    1.477   .     S
C59    C277    1.470   .     S
C60    O64     1.267   .     A
C60    O65     1.281   .     A
C60    C109    1.481   .     S
Ho61   O64     2.170   .     S
Ho61   O65     2.226   .     S
Ho61   O66     2.208   .     S
Ho61   O67     2.128   .     S
Ho61   O70     2.246   .     S
Ho61   O75     2.175   .     S
Ho61   O77     2.250   .     S
C62    O72     1.284   .     A
C62    O73     1.278   .     A
C62    C213    1.471   .     S
Ho63   O67     2.132   .     S
Ho63   O71     2.235   .     S
Ho63   O72     2.169   .     S
Ho63   O73     2.158   .     S
Ho63   O74     2.218   .     S
Ho63   O75     2.213   .     S
Ho63   O76     2.162   .     S
O66    C68     1.218   .     D
O67    C68     1.375   .     S
C68    C147    1.463   .     S
C69    O74     1.219   .     D
C69    O75     1.378   .     S
C69    C251    1.476   .     S
O70    C79     1.314   .     A
O71    C79     1.316   .     A
O76    C78     1.290   .     A
O77    C78     1.308   .     A
C78    C265    1.490   .     S
C79    C381    1.470   .     S
C80    C81     1.404   .     A
C80    C85     1.408   1_554 A
C80    C86     1.478   1_554 S
C81    C82     1.387   .     A
C81    H98     1.085   .     S
C82    C83     1.401   .     A
C82    H99     1.076   .     S
C83    C84     1.403   1_554 A
C84    C85     1.406   .     A
C84    H100    1.081   .     S
C84    C83     1.403   1_556 A
C85    H101    1.084   .     S
C85    C80     1.408   1_556 A
C86    N87     1.361   .     A
C86    C80     1.478   1_556 S
C86    N91     1.355   1_556 A
N87    N88     1.335   .     A
N88    C89     1.360   .     A
C89    C92     1.480   .     S
C89    N90     1.357   1_556 A
N90    N91     1.327   .     A
N90    C89     1.357   1_554 A
N91    C86     1.355   1_554 A
C92    C93     1.407   .     A
C92    C97     1.409   .     A
C93    C94     1.391   .     A
C93    H102    1.083   1_556 S
C94    C95     1.399   .     A
C94    H103    1.085   .     S
C95    C96     1.401   .     A
C96    C97     1.403   .     A
C96    H104    1.083   .     S
C97    H105    1.083   .     S
H102   C93     1.083   1_554 S
C106   C107    1.412   .     A
C106   C111    1.404   .     A
C106   C112    1.491   .     S
C107   C108    1.409   .     A
C107   H124    1.081   .     S
C108   C109    1.402   .     A
C108   H125    1.083   .     S
C109   C110    1.407   .     A
C110   C111    1.393   .     A
C110   H126    1.086   .     S
C111   H127    1.082   .     S
C112   N113    1.359   .     A
C112   N117    1.360   .     A
N113   N114    1.332   .     A
N114   C115    1.358   .     A
C115   N116    1.361   .     A
C115   C118    1.493   .     S
N116   N117    1.336   .     A
C118   C123    1.408   .     A
C118   C119    1.411   1_545 A
C119   C120    1.406   .     A
C119   H128    1.083   .     S
C119   C118    1.411   1_565 A
C120   C121    1.401   .     A
C120   H129    1.083   .     S
C121   C122    1.402   .     A
C122   H130    1.083   .     S
C122   C123    1.398   1_565 A
C123   H131    1.084   .     S
C123   C122    1.398   1_545 A
C132   C133    1.407   .     A
C132   C137    1.407   .     A
C132   C138    1.482   .     S
C133   C134    1.406   .     A
C133   H150    1.083   .     S
C134   C135    1.403   .     A
C134   H151    1.082   .     S
C135   C136    1.399   .     A
C136   C137    1.393   .     A
C136   H152    1.084   .     S
C137   H153    1.083   .     S
C138   N139    1.355   .     A
C138   N143    1.362   .     A
N139   N140    1.328   .     A
N140   C141    1.357   .     A
C141   N142    1.361   .     A
C141   C144    1.487   .     S
N142   N143    1.338   .     A
C144   C145    1.413   .     A
C144   C149    1.406   .     A
C145   C146    1.409   .     A
C145   H154    1.083   .     S
C146   C147    1.401   .     A
C146   H155    1.083   .     S
C147   C148    1.398   .     A
C148   C149    1.387   .     A
C148   H156    1.084   .     S
C149   H157    1.083   .     S
C158   C159    1.407   .     A
C158   C163    1.407   .     A
C158   C164    1.485   .     S
C159   C160    1.403   .     A
C159   H176    1.083   .     S
C160   C161    1.403   .     A
C160   H177    1.082   .     S
C161   C162    1.405   .     A
C162   C163    1.394   .     A
C162   H178    1.084   .     S
C163   H179    1.084   1_545 S
C164   N169    1.361   .     A
C164   N165    1.356   1_545 A
N165   N166    1.329   .     A
N165   C164    1.356   1_565 A
N166   C167    1.358   1_565 A
C167   N168    1.360   .     A
C167   N166    1.358   1_545 A
C167   C170    1.486   1_545 S
N168   N169    1.336   .     A
C170   C175    1.405   .     A
C170   C167    1.486   1_565 S
C170   C171    1.412   1_565 A
C171   H180    1.082   .     S
C171   C170    1.412   1_545 A
C171   C172    1.408   1_545 A
C172   C171    1.408   1_565 A
C172   C173    1.403   1_556 A
C172   H181    1.083   1_566 S
C173   C172    1.403   1_554 A
C173   C174    1.400   1_554 A
C174   C175    1.388   .     A
C174   H182    1.085   .     S
C174   C173    1.400   1_556 A
C175   H183    1.082   .     S
H179   C163    1.084   1_565 S
H181   C172    1.083   1_544 S
C184   C185    1.404   .     A
C184   C190    1.485   .     S
C184   C189    1.412   1_545 S
C185   C186    1.389   .     A
C185   H202    1.082   .     S
C186   C187    1.399   .     A
C186   H203    1.084   .     S
C187   C188    1.403   .     A
C188   C189    1.409   1_545 D
C188   H204    1.084   1_545 S
C189   H205    1.083   .     S
C189   C184    1.412   1_565 S
C189   C188    1.409   1_565 D
C190   N195    1.358   .     A
C190   N191    1.359   1_545 A
N191   N192    1.336   .     A
N191   C190    1.359   1_565 A
N192   C193    1.362   .     A
C193   C196    1.488   .     S
C193   N194    1.355   1_565 A
N194   N195    1.330   .     A
N194   C193    1.355   1_545 A
C196   C197    1.412   .     A
C196   C201    1.404   .     A
C197   C198    1.401   .     A
C197   H206    1.083   1_565 S
C198   C199    1.400   .     A
C198   H207    1.081   .     S
C199   C200    1.408   .     A
C200   C201    1.398   .     A
C200   H208    1.084   .     S
C201   H209    1.084   .     S
H204   C188    1.084   1_565 S
H206   C197    1.083   1_545 S
C210   C211    1.409   .     A
C210   C215    1.405   .     A
C210   C216    1.480   .     S
C211   C212    1.395   .     A
C211   H228    1.082   .     S
C212   C213    1.399   .     A
C212   H229    1.084   .     S
C213   C214    1.406   .     A
C214   C215    1.398   .     A
C214   H230    1.084   .     S
C215   H231    1.083   .     S
C216   N217    1.361   .     A
C216   N221    1.355   .     A
N217   N218    1.334   .     A
N218   C219    1.358   .     A
C219   N220    1.357   .     A
C219   C222    1.476   .     S
N220   N221    1.327   .     A
C222   C223    1.403   .     A
C222   C227    1.410   .     A
C223   C224    1.383   .     A
C223   H232    1.083   .     S
C224   C225    1.399   .     A
C224   H233    1.084   .     S
C225   C226    1.401   .     A
C226   C227    1.403   .     A
C226   H234    1.082   .     S
C227   H235    1.083   .     S
C236   C237    1.412   .     A
C236   C241    1.403   .     A
C236   C242    1.486   .     S
C237   H254    1.083   .     S
C237   C238    1.413   1_554 A
C238   C239    1.408   .     A
C238   H255    1.084   .     S
C238   C237    1.413   1_556 A
C239   C240    1.400   .     A
C240   H256    1.084   .     S
C240   C241    1.384   1_556 A
C241   H257    1.083   .     S
C241   C240    1.384   1_554 A
C242   N243    1.356   .     A
C242   N247    1.361   .     A
N243   N244    1.325   .     A
N244   C245    1.354   .     A
C245   N246    1.362   .     A
C245   C248    1.483   .     S
N246   N247    1.338   .     A
C248   C249    1.406   .     A
C248   C253    1.406   .     A
C249   C250    1.408   .     A
C249   H258    1.081   .     S
C250   C251    1.408   .     A
C250   H259    1.086   .     S
C251   C252    1.399   .     A
C252   C253    1.390   .     A
C252   H260    1.085   .     S
C253   H261    1.080   .     S
C262   C263    1.405   .     A
C262   C267    1.412   .     A
C262   C268    1.493   .     S
C263   C264    1.394   .     A
C263   H280    1.084   .     S
C264   C265    1.409   .     A
C264   H281    1.084   .     S
C265   C266    1.405   .     A
C266   C267    1.411   .     A
C266   H282    1.082   .     S
C267   H283    1.083   .     S
C268   N269    1.360   .     A
C268   N273    1.359   .     A
N269   N270    1.337   .     A
N270   C271    1.362   .     A
C271   N272    1.358   .     A
C271   C274    1.494   .     S
N272   N273    1.332   .     A
C274   C275    1.410   .     A
C274   C279    1.410   .     A
C275   H284    1.083   .     S
C275   C276    1.400   1_455 A
C276   C277    1.401   .     A
C276   H285    1.084   .     S
C276   C275    1.400   1_655 A
C277   C278    1.400   .     A
C278   H286    1.083   .     S
C278   C279    1.404   1_655 A
C279   H287    1.082   .     S
C279   C278    1.404   1_455 A
C288   C289    1.405   .     A
C288   C293    1.409   .     A
C288   C294    1.482   .     S
C289   C290    1.395   .     A
C289   H306    1.084   .     S
C290   H307    1.083   .     S
C290   C291    1.405   1_565 A
C291   C292    1.402   .     A
C291   C290    1.405   1_545 A
C292   H308    1.083   .     S
C292   C293    1.400   1_545 A
C293   H309    1.082   .     S
C293   C292    1.400   1_565 A
C294   N295    1.358   .     A
C294   N299    1.359   .     A
N295   N296    1.331   1_655 A
N296   C297    1.358   .     A
N296   N295    1.331   1_455 A
C297   C300    1.481   .     S
C297   N298    1.358   1_455 A
N298   N299    1.332   .     A
N298   C297    1.358   1_655 A
C300   C301    1.409   .     A
C300   C305    1.405   .     A
C301   C302    1.401   .     A
C301   H310    1.083   .     S
C302   C303    1.400   .     A
C302   H311    1.082   .     S
C303   C304    1.403   .     A
C304   C305    1.393   .     A
C304   H312    1.084   .     S
C305   H313    1.084   .     S
C314   C315    1.409   .     A
C314   C319    1.408   .     A
C314   C320    1.482   1_455 S
C315   C316    1.398   .     A
C315   H332    1.085   .     S
C316   C317    1.402   .     A
C316   H333    1.084   .     S
C317   C318    1.398   .     A
C318   C319    1.398   .     A
C318   H334    1.082   .     S
C319   H335    1.083   1_455 S
C320   N321    1.360   .     A
C320   N325    1.357   .     A
C320   C314    1.482   1_655 S
N321   N322    1.333   .     A
N322   C323    1.357   .     A
C323   N324    1.360   .     A
C323   C326    1.483   .     S
N324   N325    1.330   .     A
C326   C327    1.403   .     A
C326   C331    1.413   .     A
C327   C328    1.388   .     A
C327   H336    1.085   .     S
C328   C329    1.405   .     A
C328   H337    1.083   .     S
C329   C330    1.401   .     A
C330   C331    1.407   .     A
C330   H338    1.082   .     S
C331   H339    1.083   .     S
H335   C319    1.083   1_655 S
C340   C341    1.408   .     A
C340   C345    1.406   .     A
C340   C346    1.477   .     S
C341   C342    1.400   .     A
C341   H358    1.083   .     S
C342   C343    1.402   .     A
C342   H359    1.081   .     S
C343   C344    1.402   .     A
C344   C345    1.390   .     A
C344   H360    1.084   1_554 S
C345   H361    1.084   1_554 S
C346   N351    1.360   .     A
C346   N347    1.356   1_554 A
N347   N348    1.327   .     A
N347   C346    1.356   1_556 A
N348   C349    1.357   .     A
C349   C352    1.480   .     S
C349   N350    1.360   1_556 A
N350   N351    1.334   .     A
N350   C349    1.360   1_554 A
C352   C357    1.404   .     A
C352   C353    1.410   1_556 A
C353   H362    1.083   .     S
C353   C352    1.410   1_554 A
C353   C354    1.405   1_654 A
C354   C355    1.402   .     A
C354   C353    1.405   1_456 A
C354   H363    1.083   1_556 S
C355   C356    1.401   1_455 A
C356   C357    1.388   .     A
C356   H364    1.083   .     S
C356   C355    1.401   1_655 A
C357   H365    1.084   .     S
H360   C344    1.084   1_556 S
H361   C345    1.084   1_556 S
H363   C354    1.083   1_554 S
C366   C367    1.410   .     A
C366   C371    1.401   .     A
C366   C372    1.480   .     S
C367   C368    1.407   .     A
C367   H384    1.084   .     S
C368   C369    1.405   .     A
C368   H385    1.083   .     S
C369   C370    1.403   .     A
C370   C371    1.388   .     A
C370   H386    1.082   .     S
C371   H387    1.082   .     S
C372   N373    1.358   .     A
C372   N377    1.357   .     A
N373   N374    1.329   .     A
N374   C375    1.354   .     A
C375   N376    1.362   .     A
C375   C378    1.480   .     S
N376   N377    1.334   .     A
C378   C379    1.401   .     A
C378   C383    1.411   .     A
C379   C380    1.392   .     A
C379   H388    1.084   .     S
C380   C381    1.406   .     A
C380   H389    1.082   .     S
C381   C382    1.400   .     A
C382   C383    1.400   .     A
C382   H390    1.084   .     S
C383   H391    1.083   .     S
