data_lcy+N205+E161
_audit_creation_date              2025-01-21
_audit_creation_method            'Materials Studio'
_symmetry_space_group_name_H-M    'P1'
_symmetry_Int_Tables_number       1
_symmetry_cell_setting            triclinic
loop_
_symmetry_equiv_pos_as_xyz
  x,y,z
_cell_length_a                    41.6309
_cell_length_b                    41.3416
_cell_length_c                    39.5910
_cell_angle_alpha                 105.6818
_cell_angle_beta                  93.4047
_cell_angle_gamma                 92.6543
loop_
_atom_site_label
_atom_site_type_symbol
_atom_site_fract_x
_atom_site_fract_y
_atom_site_fract_z
_atom_site_U_iso_or_equiv
_atom_site_adp_type
_atom_site_occupancy
Y0     Y     0.14860   0.60754   0.89128   0.00000  Uiso   1.00
Y1     Y     0.09247   0.67084   0.84797   0.00000  Uiso   1.00
C2     C     0.04983   0.67735   0.89778   0.00000  Uiso   1.00
C3     C     0.08945   0.59315   0.83882   0.00000  Uiso   1.00
C4     C     0.16732   0.58462   0.94650   0.00000  Uiso   1.00
C5     C     0.18503   0.59212   0.83547   0.00000  Uiso   1.00
C6     C     0.15520   0.67989   0.89459   0.00000  Uiso   1.00
C7     C     0.07641   0.71061   0.80623   0.00000  Uiso   1.00
O8     O     0.07521   0.69606   0.90126   0.00000  Uiso   1.00
O9     O     0.04742   0.65410   0.86954   0.00000  Uiso   1.00
O10    O     0.09641   0.59844   0.87169   0.00000  Uiso   1.00
O11    O     0.09685   0.61518   0.82282   0.00000  Uiso   1.00
O12    O     0.17481   0.61389   0.94444   0.00000  Uiso   1.00
O13    O     0.14979   0.56730   0.92013   0.00000  Uiso   1.00
O14    O     0.18951   0.61893   0.86009   0.00000  Uiso   1.00
O15    O     0.16237   0.57298   0.84031   0.00000  Uiso   1.00
O16    O     0.14438   0.68545   0.86631   0.00000  Uiso   1.00
O17    O     0.13802   0.66142   0.90807   0.00000  Uiso   1.00
O18    O     0.06978   0.67920   0.79735   0.00000  Uiso   1.00
O19    O     0.09202   0.72062   0.83565   0.00000  Uiso   1.00
Y20    Y     0.56548   0.85399   0.16319   0.00000  Uiso   1.00
Y21    Y     0.63582   0.86986   0.07609   0.00000  Uiso   1.00
C22    C     0.67305   0.81736   0.06037   0.00000  Uiso   1.00
C23    C     0.63398   0.88499   0.15994   0.00000  Uiso   1.00
C24    C     0.54988   0.80075   0.18676   0.00000  Uiso   1.00
C25    C     0.53901   0.91241   0.19137   0.00000  Uiso   1.00
C26    C     0.56662   0.84399   0.07785   0.00000  Uiso   1.00
C27    C     0.65866   0.91485   0.04370   0.00000  Uiso   1.00
O28    O     0.65598   0.82663   0.03777   0.00000  Uiso   1.00
O29    O     0.66834   0.83302   0.09161   0.00000  Uiso   1.00
O30    O     0.61849   0.85667   0.15468   0.00000  Uiso   1.00
O31    O     0.64049   0.89697   0.13442   0.00000  Uiso   1.00
O32    O     0.53845   0.80395   0.15756   0.00000  Uiso   1.00
O33    O     0.56958   0.82481   0.20333   0.00000  Uiso   1.00
O34    O     0.56538   0.90428   0.20333   0.00000  Uiso   1.00
O35    O     0.52609   0.88998   0.16504   0.00000  Uiso   1.00
O36    O     0.58531   0.84898   0.05550   0.00000  Uiso   1.00
O37    O     0.57919   0.85074   0.10904   0.00000  Uiso   1.00
O38    O     0.67601   0.89692   0.05720   0.00000  Uiso   1.00
O39    O     0.62931   0.91134   0.04904   0.00000  Uiso   1.00
Y40    Y     0.90740   0.14705   0.58035   0.00000  Uiso   1.00
Y41    Y     0.87432   0.09597   0.66394   0.00000  Uiso   1.00
C42    C     0.92642   0.06010   0.66674   0.00000  Uiso   1.00
C43    C     0.86485   0.08579   0.58119   0.00000  Uiso   1.00
C44    C     0.96083   0.16374   0.55232   0.00000  Uiso   1.00
C45    C     0.85225   0.17378   0.56613   0.00000  Uiso   1.00
C46    C     0.90690   0.16274   0.66131   0.00000  Uiso   1.00
C47    C     0.82931   0.07628   0.70197   0.00000  Uiso   1.00
O48    O     0.91841   0.08293   0.69247   0.00000  Uiso   1.00
O49    O     0.90905   0.05790   0.63898   0.00000  Uiso   1.00
O50    O     0.89474   0.09444   0.58276   0.00000  Uiso   1.00
O51    O     0.85047   0.08754   0.60917   0.00000  Uiso   1.00
O52    O     0.95061   0.18148   0.58036   0.00000  Uiso   1.00
O53    O     0.94342   0.13686   0.53876   0.00000  Uiso   1.00
O54    O     0.86229   0.14741   0.54632   0.00000  Uiso   1.00
O55    O     0.87142   0.18699   0.59286   0.00000  Uiso   1.00
O56    O     0.88900   0.15144   0.68081   0.00000  Uiso   1.00
O57    O     0.91605   0.14182   0.63457   0.00000  Uiso   1.00
O58    O     0.84040   0.05693   0.67565   0.00000  Uiso   1.00
O59    O     0.84053   0.10625   0.70784   0.00000  Uiso   1.00
Y60    Y     0.40643   0.34519   0.42737   0.00000  Uiso   1.00
Y61    Y     0.37288   0.40549   0.34952   0.00000  Uiso   1.00
C62    C     0.42408   0.44928   0.35366   0.00000  Uiso   1.00
C63    C     0.37157   0.41184   0.43172   0.00000  Uiso   1.00
C64    C     0.46183   0.32446   0.45070   0.00000  Uiso   1.00
C65    C     0.35119   0.31378   0.43752   0.00000  Uiso   1.00
C66    C     0.39961   0.33932   0.34779   0.00000  Uiso   1.00
C67    C     0.32740   0.41972   0.30491   0.00000  Uiso   1.00
O68    O     0.42126   0.42001   0.33303   0.00000  Uiso   1.00
O69    O     0.40200   0.45459   0.37453   0.00000  Uiso   1.00
O70    O     0.39680   0.40018   0.44292   0.00000  Uiso   1.00
O71    O     0.35707   0.39804   0.40139   0.00000  Uiso   1.00
O72    O     0.44672   0.31011   0.42152   0.00000  Uiso   1.00
O73    O     0.44839   0.34998   0.46780   0.00000  Uiso   1.00
O74    O     0.36595   0.33816   0.46025   0.00000  Uiso   1.00
O75    O     0.36565   0.30477   0.40960   0.00000  Uiso   1.00
O76    O     0.38363   0.35153   0.32674   0.00000  Uiso   1.00
O77    O     0.40863   0.35912   0.37746   0.00000  Uiso   1.00
O78    O     0.33005   0.43376   0.33756   0.00000  Uiso   1.00
O79    O     0.34667   0.39691   0.29613   0.00000  Uiso   1.00
H80    H     0.20507   0.69910   0.86175   0.00000  Uiso   1.00
C81    C     0.53262   0.83133   0.06669   0.00000  Uiso   1.00
C82    C     0.51011   0.82889   0.09094   0.00000  Uiso   1.00
C83    C     0.47809   0.81664   0.07971   0.00000  Uiso   1.00
C84    C     0.46843   0.80659   0.04342   0.00000  Uiso   1.00
C85    C     0.49088   0.80915   0.01881   0.00000  Uiso   1.00
C86    C     0.52263   0.82149   0.03064   0.00000  Uiso   1.00
C87    C     0.45441   0.81432   0.10639   0.00000  Uiso   1.00
C88    C     0.48106   0.79874   0.97996   0.00000  Uiso   1.00
C89    C     0.41293   0.81529   0.02748   0.00000  Uiso   1.00
C90    C     0.38171   0.80287   0.01284   0.00000  Uiso   1.00
C91    C     0.37445   0.76779   0.00204   0.00000  Uiso   1.00
C92    C     0.39815   0.74581   0.00664   0.00000  Uiso   1.00
C93    C     0.42893   0.75942   0.02170   0.00000  Uiso   1.00
C94    C     0.35781   0.82456   0.00827   0.00000  Uiso   1.00
C95    C     0.32713   0.81158  -0.00695   0.00000  Uiso   1.00
C96    C     0.31973   0.77664   0.98189   0.00000  Uiso   1.00
C97    C     0.34348   0.75465   0.98635   0.00000  Uiso   1.00
C98    C     0.33639   0.71957   0.97502   0.00000  Uiso   1.00
C99    C     0.36018   0.69789   0.97991   0.00000  Uiso   1.00
C100   C     0.39069   0.71087   0.99564   0.00000  Uiso   1.00
C101   C     0.28912   0.76301   0.96631   0.00000  Uiso   1.00
C102   C     0.30559   0.70709   0.95906   0.00000  Uiso   1.00
C103   C     0.25097   0.71555   0.93967   0.00000  Uiso   1.00
C104   C     0.23483   0.70854  -0.00118   0.00000  Uiso   1.00
C105   C     0.19678   0.69389   0.94511   0.00000  Uiso   1.00
C106   C     0.26744   0.72153   0.88088   0.00000  Uiso   1.00
C107   C     0.21140   0.70113   0.88923   0.00000  Uiso   1.00
C108   C     0.24278   0.71264   0.90376   0.00000  Uiso   1.00
C109   C     0.22774   0.70595   0.96039   0.00000  Uiso   1.00
C110   C     0.18828   0.69178   0.90976   0.00000  Uiso   1.00
H111   H     0.28845   0.70596   0.88100   0.00000  Uiso   1.00
N112   N     0.43585   0.79353   0.03125   0.00000  Uiso   1.00
N113   N     0.28268   0.72882   0.95516   0.00000  Uiso   1.00
H114   H     0.27567   0.74856   0.89091   0.00000  Uiso   1.00
H115   H     0.51736   0.83659   0.11855   0.00000  Uiso   1.00
H116   H     0.53972   0.82319   0.01150   0.00000  Uiso   1.00
H117   H     0.46575   0.82304   0.13370   0.00000  Uiso   1.00
H118   H     0.43403   0.83020   0.10421   0.00000  Uiso   1.00
H119   H     0.44491   0.78781   0.10165   0.00000  Uiso   1.00
H120   H     0.46106   0.81378   0.97424   0.00000  Uiso   1.00
H121   H     0.50134   0.80268   0.96420   0.00000  Uiso   1.00
H122   H     0.47291   0.77163   0.97143   0.00000  Uiso   1.00
O123   O     0.45244   0.73836   0.02607   0.00000  Uiso   1.00
O124   O     0.42069   0.84935   0.03732   0.00000  Uiso   1.00
H125   H     0.36275   0.85161   0.01634   0.00000  Uiso   1.00
H126   H     0.40846   0.69343   0.99891   0.00000  Uiso   1.00
H127   H     0.30932   0.82902  -0.01013   0.00000  Uiso   1.00
H128   H     0.23181   0.68312   0.00304   0.00000  Uiso   1.00
H129   H     0.25960   0.71911   0.00886   0.00000  Uiso   1.00
H130   H     0.17902   0.68677   0.96118   0.00000  Uiso   1.00
H131   H     0.35533   0.67082   0.97158   0.00000  Uiso   1.00
H132   H     0.25747   0.71690   0.85321   0.00000  Uiso   1.00
O133   O     0.29832   0.67298   0.94758   0.00000  Uiso   1.00
O134   O     0.26549   0.78408   0.96235   0.00000  Uiso   1.00
H135   H     0.21770   0.72510   0.01456   0.00000  Uiso   1.00
H136   H     0.56883   0.96785   0.23679   0.00000  Uiso   1.00
C137   C     0.40681   0.30365   0.33834   0.00000  Uiso   1.00
C138   C     0.38348   0.27850   0.32017   0.00000  Uiso   1.00
C139   C     0.39127   0.24473   0.30910   0.00000  Uiso   1.00
C140   C     0.42305   0.23626   0.31583   0.00000  Uiso   1.00
C141   C     0.44655   0.26161   0.33413   0.00000  Uiso   1.00
C142   C     0.43820   0.29509   0.34510   0.00000  Uiso   1.00
C143   C     0.36587   0.21795   0.28989   0.00000  Uiso   1.00
C144   C     0.48061   0.25313   0.34130   0.00000  Uiso   1.00
C145   C     0.44349   0.19225   0.27003   0.00000  Uiso   1.00
C146   C     0.45443   0.15984   0.25743   0.00000  Uiso   1.00
C147   C     0.45319   0.13762   0.27881   0.00000  Uiso   1.00
C148   C     0.44083   0.14797   0.31214   0.00000  Uiso   1.00
C149   C     0.43025   0.18069   0.32367   0.00000  Uiso   1.00
C150   C     0.46686   0.14931   0.22427   0.00000  Uiso   1.00
C151   C     0.47818   0.11720   0.21257   0.00000  Uiso   1.00
C152   C     0.47723   0.09488   0.23374   0.00000  Uiso   1.00
C153   C     0.46455   0.10506   0.26691   0.00000  Uiso   1.00
C154   C     0.46338   0.08283   0.28829   0.00000  Uiso   1.00
C155   C     0.45080   0.09332   0.32139   0.00000  Uiso   1.00
C156   C     0.43968   0.12555   0.33321   0.00000  Uiso   1.00
C157   C     0.48881   0.06260   0.22267   0.00000  Uiso   1.00
C158   C     0.47502   0.05066   0.27597   0.00000  Uiso   1.00
C159   C     0.49985   0.00842   0.23183   0.00000  Uiso   1.00
C160   C     0.44601   0.98524   0.19730   0.00000  Uiso   1.00
C161   C     0.49340   0.95019   0.19601   0.00000  Uiso   1.00
C162   C     0.55331   0.03187   0.26567   0.00000  Uiso   1.00
C163   C     0.54416   0.97164   0.22929   0.00000  Uiso   1.00
C164   C     0.53191   0.00336   0.24200   0.00000  Uiso   1.00
C165   C     0.48043   0.98150   0.20887   0.00000  Uiso   1.00
C166   C     0.52519   0.94507   0.20606   0.00000  Uiso   1.00
H167   H     0.54288   0.04090   0.29145   0.00000  Uiso   1.00
N168   N     0.43202   0.20212   0.30272   0.00000  Uiso   1.00
N169   N     0.48757   0.04129   0.24379   0.00000  Uiso   1.00
H170   H     0.55546   0.05296   0.25336   0.00000  Uiso   1.00
H171   H     0.35928   0.28527   0.31461   0.00000  Uiso   1.00
H172   H     0.45647   0.31478   0.35809   0.00000  Uiso   1.00
H173   H     0.34220   0.22862   0.28694   0.00000  Uiso   1.00
H174   H     0.37324   0.20546   0.26324   0.00000  Uiso   1.00
H175   H     0.36276   0.19886   0.30469   0.00000  Uiso   1.00
H176   H     0.49143   0.24226   0.31608   0.00000  Uiso   1.00
H177   H     0.49596   0.27574   0.35630   0.00000  Uiso   1.00
H178   H     0.48070   0.23452   0.35693   0.00000  Uiso   1.00
O179   O     0.41860   0.19142   0.35628   0.00000  Uiso   1.00
O180   O     0.44485   0.21436   0.24969   0.00000  Uiso   1.00
H181   H     0.46806   0.16589   0.20730   0.00000  Uiso   1.00
H182   H     0.43030   0.13286   0.35893   0.00000  Uiso   1.00
H183   H     0.48776   0.10997   0.18695   0.00000  Uiso   1.00
H184   H     0.42996   0.96636   0.20454   0.00000  Uiso   1.00
H185   H     0.43763   0.01051   0.20960   0.00000  Uiso   1.00
H186   H     0.47855   0.92976   0.17807   0.00000  Uiso   1.00
H187   H     0.44967   0.07675   0.33836   0.00000  Uiso   1.00
H188   H     0.57794   0.02404   0.27046   0.00000  Uiso   1.00
O189   O     0.47390   0.02857   0.29633   0.00000  Uiso   1.00
O190   O     0.50151   0.05239   0.19055   0.00000  Uiso   1.00
H191   H     0.44356   0.98082   0.16830   0.00000  Uiso   1.00
H192   H     0.50100   0.35485   0.50897   0.00000  Uiso   1.00
C193   C     0.82093   0.18704   0.55916   0.00000  Uiso   1.00
C194   C     0.80011   0.16936   0.53024   0.00000  Uiso   1.00
C195   C     0.76998   0.18117   0.52363   0.00000  Uiso   1.00
C196   C     0.76041   0.21117   0.54637   0.00000  Uiso   1.00
C197   C     0.78120   0.22902   0.57563   0.00000  Uiso   1.00
C198   C     0.81127   0.21675   0.58182   0.00000  Uiso   1.00
C199   C     0.74814   0.16178   0.49234   0.00000  Uiso   1.00
C200   C     0.77145   0.26112   0.60008   0.00000  Uiso   1.00
C201   C     0.70296   0.21490   0.55338   0.00000  Uiso   1.00
C202   C     0.67281   0.22623   0.54547   0.00000  Uiso   1.00
C203   C     0.67081   0.24698   0.52254   0.00000  Uiso   1.00
C204   C     0.69882   0.25631   0.50824   0.00000  Uiso   1.00
C205   C     0.72843   0.24454   0.51707   0.00000  Uiso   1.00
C206   C     0.64469   0.21716   0.55964   0.00000  Uiso   1.00
C207   C     0.61494   0.22836   0.55095   0.00000  Uiso   1.00
C208   C     0.61262   0.24883   0.52787   0.00000  Uiso   1.00
C209   C     0.64069   0.25825   0.51370   0.00000  Uiso   1.00
C210   C     0.63868   0.27873   0.49051   0.00000  Uiso   1.00
C211   C     0.66680   0.28795   0.47650   0.00000  Uiso   1.00
C212   C     0.69654   0.27689   0.48528   0.00000  Uiso   1.00
C213   C     0.58290   0.26001   0.51831   0.00000  Uiso   1.00
C214   C     0.60846   0.28929   0.48174   0.00000  Uiso   1.00
C215   C     0.55059   0.29014   0.48519   0.00000  Uiso   1.00
C216   C     0.54329   0.23799   0.43232   0.00000  Uiso   1.00
C217   C     0.50342   0.28217   0.44381   0.00000  Uiso   1.00
C218   C     0.55781   0.34143   0.53793   0.00000  Uiso   1.00
C219   C     0.50975   0.33141   0.49389   0.00000  Uiso   1.00
C220   C     0.53896   0.32050   0.50508   0.00000  Uiso   1.00
C221   C     0.53246   0.27075   0.45447   0.00000  Uiso   1.00
C222   C     0.49205   0.31255   0.46310   0.00000  Uiso   1.00
H223   H     0.58195   0.34942   0.53140   0.00000  Uiso   1.00
N224   N     0.72993   0.22403   0.53904   0.00000  Uiso   1.00
N225   N     0.58136   0.27973   0.49553   0.00000  Uiso   1.00
H226   H     0.56079   0.32644   0.55719   0.00000  Uiso   1.00
H227   H     0.80728   0.14618   0.51287   0.00000  Uiso   1.00
H228   H     0.82717   0.23037   0.60435   0.00000  Uiso   1.00
H229   H     0.75953   0.13943   0.47657   0.00000  Uiso   1.00
H230   H     0.72537   0.15308   0.50135   0.00000  Uiso   1.00
H231   H     0.74250   0.17807   0.47491   0.00000  Uiso   1.00
H232   H     0.74905   0.25606   0.61220   0.00000  Uiso   1.00
H233   H     0.79045   0.27220   0.62154   0.00000  Uiso   1.00
H234   H     0.76703   0.27990   0.58518   0.00000  Uiso   1.00
O235   O     0.75594   0.25332   0.50328   0.00000  Uiso   1.00
O236   O     0.70532   0.19431   0.57530   0.00000  Uiso   1.00
H237   H     0.64556   0.20131   0.57739   0.00000  Uiso   1.00
H238   H     0.71768   0.28437   0.47387   0.00000  Uiso   1.00
H239   H     0.59375   0.22081   0.56228   0.00000  Uiso   1.00
H240   H     0.54658   0.23999   0.40531   0.00000  Uiso   1.00
H241   H     0.56632   0.23088   0.44298   0.00000  Uiso   1.00
H242   H     0.48966   0.26722   0.42025   0.00000  Uiso   1.00
H243   H     0.66591   0.30363   0.45858   0.00000  Uiso   1.00
H244   H     0.54543   0.36437   0.55052   0.00000  Uiso   1.00
O245   O     0.60604   0.30907   0.45898   0.00000  Uiso   1.00
O246   O     0.55525   0.25085   0.53160   0.00000  Uiso   1.00
H247   H     0.52462   0.21748   0.43083   0.00000  Uiso   1.00
H248   H     0.63213   0.96746   0.02570   0.00000  Uiso   1.00
C249   C     0.80785   0.06452   0.72503   0.00000  Uiso   1.00
C250   C     0.80750   0.03084   0.72589   0.00000  Uiso   1.00
C251   C     0.79152   1.02017   0.75153   0.00000  Uiso   1.00
C252   C     0.77468   0.04343   0.77602   0.00000  Uiso   1.00
C253   C     0.77323   0.07688   0.77374   0.00000  Uiso   1.00
C254   C     0.79023   0.08726   0.74853   0.00000  Uiso   1.00
C255   C     0.79390   0.98452   0.75369   0.00000  Uiso   1.00
C256   C     0.75421   0.10164   0.79858   0.00000  Uiso   1.00
C257   C     0.77802   0.04334   0.83724   0.00000  Uiso   1.00
C258   C     0.76590   1.03402   0.86583   0.00000  Uiso   1.00
C259   C     0.73703   1.01358   0.86038   0.00000  Uiso   1.00
C260   C     0.72035   1.00354   0.82682   0.00000  Uiso   1.00
C261   C     0.73271   1.01469   0.79935   0.00000  Uiso   1.00
C262   C     0.78209   0.04434   0.89952   0.00000  Uiso   1.00
C263   C     0.76981   1.03438   0.92747   0.00000  Uiso   1.00
C264   C     0.74138   1.01341   0.92217   0.00000  Uiso   1.00
C265   C     0.72503   1.00282   0.88846   0.00000  Uiso   1.00
C266   C     0.69700   0.98107   0.88263   0.00000  Uiso   1.00
C267   C     0.68063   0.97104   0.84901   0.00000  Uiso   1.00
C268   C     0.69201   0.98242   0.82148   0.00000  Uiso   1.00
C269   C     0.72917   1.00212   0.94959   0.00000  Uiso   1.00
C270   C     0.68644   0.96937   0.91051   0.00000  Uiso   1.00
C271   C     0.69270   0.96560   0.97057   0.00000  Uiso   1.00
C272   C     0.73962   0.92679   0.96081   0.00000  Uiso   1.00
C273   C     0.69980   0.92558   0.00495   0.00000  Uiso   1.00
C274   C     0.64669   1.00448   0.98080   0.00000  Uiso   1.00
C275   C     0.65410   0.96029   0.01305   0.00000  Uiso   1.00
C276   C     0.66491   0.97630   0.98832   0.00000  Uiso   1.00
C277   C     0.71030   0.94011   0.97920   0.00000  Uiso   1.00
C278   C     0.67133   0.93475   0.02118   0.00000  Uiso   1.00
H279   H     0.63573   0.99676   0.95336   0.00000  Uiso   1.00
N280   N     0.76129   0.03380   0.80487   0.00000  Uiso   1.00
N281   N     0.70259   0.97993   0.94317   0.00000  Uiso   1.00
H282   H     0.66340   0.02709   0.98441   0.00000  Uiso   1.00
H283   H     0.82119   1.01326   0.70773   0.00000  Uiso   1.00
H284   H     0.79029   0.11324   0.74766   0.00000  Uiso   1.00
H285   H     0.80916   0.97005   0.73356   0.00000  Uiso   1.00
H286   H     0.80474   0.98458   0.78002   0.00000  Uiso   1.00
H287   H     0.76958   0.97132   0.74932   0.00000  Uiso   1.00
H288   H     0.76492   0.10640   0.82594   0.00000  Uiso   1.00
H289   H     0.75394   0.12610   0.79201   0.00000  Uiso   1.00
H290   H     0.72890   0.09131   0.79701   0.00000  Uiso   1.00
O291   O     0.71626   1.00608   0.76677   0.00000  Uiso   1.00
O292   O     0.80696   0.06186   0.84171   0.00000  Uiso   1.00
H293   H     0.80427   0.06018   0.90441   0.00000  Uiso   1.00
H294   H     0.67881   0.97422   0.79592   0.00000  Uiso   1.00
H295   H     0.78291   1.04277   0.95308   0.00000  Uiso   1.00
H296   H     0.73590   0.89908   0.94965   0.00000  Uiso   1.00
H297   H     0.74474   0.93763   0.93884   0.00000  Uiso   1.00
H298   H     0.71309   0.90562   0.01095   0.00000  Uiso   1.00
H299   H     0.65901   0.95435   0.84384   0.00000  Uiso   1.00
H300   H     0.62708   0.01149  -0.00127   0.00000  Uiso   1.00
O301   O     0.66034   0.94649   0.90473   0.00000  Uiso   1.00
O302   O     0.74468   1.01231   0.98267   0.00000  Uiso   1.00
H303   H     0.76106   0.93237   0.98001   0.00000  Uiso   1.00
H304   H     0.68177   0.86244   0.19232   0.00000  Uiso   1.00
C305   C     0.84672   0.07324   0.54666   0.00000  Uiso   1.00
C306   C     0.81415   0.07947   0.54242   0.00000  Uiso   1.00
C307   C     0.79628   0.06543   0.51016   0.00000  Uiso   1.00
C308   C     0.81105   0.04405   0.48206   0.00000  Uiso   1.00
C309   C     0.84394   0.03789   0.48623   0.00000  Uiso   1.00
C310   C     0.86158   0.05303   0.51835   0.00000  Uiso   1.00
C311   C     0.76152   0.07307   0.50593   0.00000  Uiso   1.00
C312   C     0.85997   1.01441   0.45706   0.00000  Uiso   1.00
C313   C     0.79505   0.04062   0.42117   0.00000  Uiso   1.00
C314   C     0.77728   0.02507   0.38912   0.00000  Uiso   1.00
C315   C     0.75588   0.99707   0.38703   0.00000  Uiso   1.00
C316   C     0.75316   0.98459   0.41656   0.00000  Uiso   1.00
C317   C     0.77231   1.00019   0.44764   0.00000  Uiso   1.00
C318   C     0.78031   0.03686   0.35927   0.00000  Uiso   1.00
C319   C     0.76233   0.02102   0.32770   0.00000  Uiso   1.00
C320   C     0.74055   0.99339   0.32548   0.00000  Uiso   1.00
C321   C     0.73712   0.98155   0.35534   0.00000  Uiso   1.00
C322   C     0.71498   0.95423   0.35360   0.00000  Uiso   1.00
C323   C     0.71228   0.94215   0.38331   0.00000  Uiso   1.00
C324   C     0.73137   0.95697   0.41436   0.00000  Uiso   1.00
C325   C     0.72213   0.97709   0.29407   0.00000  Uiso   1.00
C326   C     0.69620   0.93958   0.32202   0.00000  Uiso   1.00
C327   C     0.68237   0.93395   0.26019   0.00000  Uiso   1.00
C328   C     0.64424   0.98183   0.26829   0.00000  Uiso   1.00
C329   C     0.63998   0.93290   0.21458   0.00000  Uiso   1.00
C330   C     0.72076   0.88682   0.25177   0.00000  Uiso   1.00
C331   C     0.67457   0.88644   0.20798   0.00000  Uiso   1.00
C332   C     0.69177   0.90259   0.24000   0.00000  Uiso   1.00
C333   C     0.65596   0.94895   0.24753   0.00000  Uiso   1.00
C334   C     0.64904   0.90159   0.19507   0.00000  Uiso   1.00
H335   H     0.71671   0.88058   0.27678   0.00000  Uiso   1.00
N336   N     0.79241   0.02792   0.44952   0.00000  Uiso   1.00
N337   N     0.70041   0.95080   0.29292   0.00000  Uiso   1.00
H338   H     0.74234   0.90462   0.25574   0.00000  Uiso   1.00
H339   H     0.80272   0.09527   0.56428   0.00000  Uiso   1.00
H340   H     0.88669   0.04792   0.52181   0.00000  Uiso   1.00
H341   H     0.75434   0.09228   0.52931   0.00000  Uiso   1.00
H342   H     0.75762   0.08281   0.48261   0.00000  Uiso   1.00
H343   H     0.74573   0.04982   0.50222   0.00000  Uiso   1.00
H344   H     0.86011   1.02453   0.43382   0.00000  Uiso   1.00
H345   H     0.88534   1.01111   0.46519   0.00000  Uiso   1.00
H346   H     0.84670   0.98928   0.44948   0.00000  Uiso   1.00
O347   O     0.77078   0.98763   0.47630   0.00000  Uiso   1.00
O348   O     0.81510   0.06871   0.42408   0.00000  Uiso   1.00
H349   H     0.79671   0.05823   0.36013   0.00000  Uiso   1.00
H350   H     0.72881   0.94690   0.43669   0.00000  Uiso   1.00
H351   H     0.76542   0.03063   0.30515   0.00000  Uiso   1.00
H352   H     0.61872   0.97796   0.27371   0.00000  Uiso   1.00
H353   H     0.65821   0.99233   0.29396   0.00000  Uiso   1.00
H354   H     0.62037   0.94468   0.20428   0.00000  Uiso   1.00
H355   H     0.69559   0.92104   0.38259   0.00000  Uiso   1.00
H356   H     0.72581   0.86322   0.23200   0.00000  Uiso   1.00
O357   O     0.67371   0.91368   0.32021   0.00000  Uiso   1.00
O358   O     0.72595   0.98754   0.26437   0.00000  Uiso   1.00
H359   H     0.64597   1.00058   0.25290   0.00000  Uiso   1.00
H360   H     0.18784   0.53176   0.78834   0.00000  Uiso   1.00
C361   C     0.35430   0.43489   0.45842   0.00000  Uiso   1.00
C362   C     0.35660   0.46972   0.46307   0.00000  Uiso   1.00
C363   C     0.34280   0.49138   0.49158   0.00000  Uiso   1.00
C364   C     0.32669   0.47774   0.51558   0.00000  Uiso   1.00
C365   C     0.32362   0.44251   0.51009   0.00000  Uiso   1.00
C366   C     0.33740   0.42149   0.48154   0.00000  Uiso   1.00
C367   C     0.34587   0.52881   0.49680   0.00000  Uiso   1.00
C368   C     0.30650   0.42731   0.53518   0.00000  Uiso   1.00
C369   C     0.28369   0.50759   0.54688   0.00000  Uiso   1.00
C370   C     0.27032   0.52283   0.57870   0.00000  Uiso   1.00
C371   C     0.28983   0.52950   0.61045   0.00000  Uiso   1.00
C372   C     0.32261   0.52254   0.60978   0.00000  Uiso   1.00
C373   C     0.33497   0.50767   0.57733   0.00000  Uiso   1.00
C374   C     0.23773   0.53024   0.57970   0.00000  Uiso   1.00
C375   C     0.22443   0.54312   0.61185   0.00000  Uiso   1.00
C376   C     0.24338   0.54860   0.64373   0.00000  Uiso   1.00
C377   C     0.27628   0.54213   0.64300   0.00000  Uiso   1.00
C378   C     0.29548   0.54741   0.67478   0.00000  Uiso   1.00
C379   C     0.32841   0.54143   0.67374   0.00000  Uiso   1.00
C380   C     0.34185   0.52924   0.64159   0.00000  Uiso   1.00
C381   C     0.23010   0.55956   0.67642   0.00000  Uiso   1.00
C382   C     0.28098   0.55771   0.70682   0.00000  Uiso   1.00
C383   C     0.23375   0.57043   0.74001   0.00000  Uiso   1.00
C384   C     0.25307   0.63252   0.75352   0.00000  Uiso   1.00
C385   C     0.22085   0.61012   0.79448   0.00000  Uiso   1.00
C386   C     0.21517   0.50865   0.72684   0.00000  Uiso   1.00
C387   C     0.20137   0.55169   0.78126   0.00000  Uiso   1.00
C388   C     0.21681   0.54434   0.74980   0.00000  Uiso   1.00
C389   C     0.23581   0.60355   0.76266   0.00000  Uiso   1.00
C390   C     0.20317   0.58447   0.80364   0.00000  Uiso   1.00
H391   H     0.23994   0.50018   0.72297   0.00000  Uiso   1.00
N392   N     0.31518   0.49934   0.54693   0.00000  Uiso   1.00
N393   N     0.24873   0.56294   0.70707   0.00000  Uiso   1.00
H394   H     0.20258   0.50708   0.70090   0.00000  Uiso   1.00
H395   H     0.36982   0.47995   0.44512   0.00000  Uiso   1.00
H396   H     0.33569   0.39452   0.47773   0.00000  Uiso   1.00
H397   H     0.35897   0.53546   0.47572   0.00000  Uiso   1.00
H398   H     0.32150   0.53861   0.49650   0.00000  Uiso   1.00
H399   H     0.35927   0.54121   0.52248   0.00000  Uiso   1.00
H400   H     0.28112   0.43443   0.53595   0.00000  Uiso   1.00
H401   H     0.30632   0.39940   0.52721   0.00000  Uiso   1.00
H402   H     0.31880   0.43657   0.56198   0.00000  Uiso   1.00
O403   O     0.36658   0.49956   0.57635   0.00000  Uiso   1.00
O404   O     0.26464   0.49928   0.51589   0.00000  Uiso   1.00
H405   H     0.22224   0.52559   0.55569   0.00000  Uiso   1.00
H406   H     0.36719   0.52435   0.64180   0.00000  Uiso   1.00
H407   H     0.19912   0.54807   0.61166   0.00000  Uiso   1.00
H408   H     0.27337   0.64315   0.77352   0.00000  Uiso   1.00
H409   H     0.26288   0.62514   0.72728   0.00000  Uiso   1.00
H410   H     0.22218   0.63559   0.81161   0.00000  Uiso   1.00
H411   H     0.34380   0.54564   0.69776   0.00000  Uiso   1.00
H412   H     0.20187   0.49114   0.73880   0.00000  Uiso   1.00
O413   O     0.29905   0.56165   0.73799   0.00000  Uiso   1.00
O414   O     0.19804   0.56588   0.67762   0.00000  Uiso   1.00
H415   H     0.23605   0.65241   0.75344   0.00000  Uiso   1.00
H416   H     0.31668   0.38897   0.23562   0.00000  Uiso   1.00
C417   C     0.17808   0.57204   0.97645   0.00000  Uiso   1.00
C418   C     0.18468   0.59446   1.00995   0.00000  Uiso   1.00
C419   C     0.19487   0.58279   0.03873   0.00000  Uiso   1.00
C420   C     0.19951   0.54819   0.03362   0.00000  Uiso   1.00
C421   C     0.19346   0.52562   0.99970   0.00000  Uiso   1.00
C422   C     0.18227   0.53769   0.97154   0.00000  Uiso   1.00
C423   C     0.20039   0.60718   0.07475   0.00000  Uiso   1.00
C424   C     0.19949   0.48888   0.99336   0.00000  Uiso   1.00
C425   C     0.18875   0.52032   0.07886   0.00000  Uiso   1.00
C426   C     0.19912   0.50712   0.10657   0.00000  Uiso   1.00
C427   C     0.23204   0.51115   0.11833   0.00000  Uiso   1.00
C428   C     0.25404   0.52793   0.10210   0.00000  Uiso   1.00
C429   C     0.24269   0.53982   0.07381   0.00000  Uiso   1.00
C430   C     0.17748   0.48989   0.12261   0.00000  Uiso   1.00
C431   C     0.18842   0.47666   0.14985   0.00000  Uiso   1.00
C432   C     0.22117   0.48068   0.16193   0.00000  Uiso   1.00
C433   C     0.24301   0.49821   0.14626   0.00000  Uiso   1.00
C434   C     0.27585   0.50266   0.15833   0.00000  Uiso   1.00
C435   C     0.29751   0.51987   0.14231   0.00000  Uiso   1.00
C436   C     0.28676   0.53222   0.11438   0.00000  Uiso   1.00
C437   C     0.23279   0.46738   0.18913   0.00000  Uiso   1.00
C438   C     0.28624   0.48944   0.18599   0.00000  Uiso   1.00
C439   C     0.27665   0.45690   0.22735   0.00000  Uiso   1.00
C440   C     0.26214   0.50795   0.27550   0.00000  Uiso   1.00
C441   C     0.29144   0.46096   0.28890   0.00000  Uiso   1.00
C442   C     0.29021   0.40606   0.17937   0.00000  Uiso   1.00
C443   C     0.30511   0.41253   0.24342   0.00000  Uiso   1.00
C444   C     0.29033   0.42540   0.21752   0.00000  Uiso   1.00
C445   C     0.27660   0.47442   0.26339   0.00000  Uiso   1.00
C446   C     0.30651   0.43053   0.27905   0.00000  Uiso   1.00
H447   H     0.30405   0.42093   0.16495   0.00000  Uiso   1.00
N448   N     0.21055   0.53596   0.06285   0.00000  Uiso   1.00
N449   N     0.26482   0.47185   0.20047   0.00000  Uiso   1.00
H450   H     0.26503   0.40086   0.16749   0.00000  Uiso   1.00
H451   H     0.18135   0.62102   1.01373   0.00000  Uiso   1.00
H452   H     0.17752   0.52043   0.94552   0.00000  Uiso   1.00
H453   H     0.19467   0.63310   0.07450   0.00000  Uiso   1.00
H454   H     0.18477   0.59909   0.09314   0.00000  Uiso   1.00
H455   H     0.22600   0.60800   0.08462   0.00000  Uiso   1.00
H456   H     0.18331   0.47709   1.00857   0.00000  Uiso   1.00
H457   H     0.19507   0.47493   0.96511   0.00000  Uiso   1.00
H458   H     0.22494   0.48622   1.00170   0.00000  Uiso   1.00
O459   O     0.26398   0.55520   0.05691   0.00000  Uiso   1.00
O460   O     0.15663   0.51733   0.06763   0.00000  Uiso   1.00
H461   H     0.15207   0.48632   0.11399   0.00000  Uiso   1.00
H462   H     0.30416   0.54518   0.10251   0.00000  Uiso   1.00
H463   H     0.17113   0.46327   0.16140   0.00000  Uiso   1.00
H464   H     0.28109   0.52725   0.29014   0.00000  Uiso   1.00
H465   H     0.25140   0.51664   0.25347   0.00000  Uiso   1.00
H466   H     0.29251   0.47512   0.31636   0.00000  Uiso   1.00
H467   H     0.32288   0.52363   0.15113   0.00000  Uiso   1.00
H468   H     0.30135   0.38161   0.17611   0.00000  Uiso   1.00
O469   O     0.31816   0.49369   0.19817   0.00000  Uiso   1.00
O470   O     0.21200   0.44962   0.20422   0.00000  Uiso   1.00
H471   H     0.24288   0.50604   0.29323   0.00000  Uiso   1.00
H472   H     0.99311   0.12586   0.49939   0.00000  Uiso   1.00
C473   C     0.31980   0.29854   0.44296   0.00000  Uiso   1.00
C474   C     0.30212   0.31540   0.47075   0.00000  Uiso   1.00
C475   C     0.27180   0.30214   0.47592   0.00000  Uiso   1.00
C476   C     0.25916   0.27100   0.45337   0.00000  Uiso   1.00
C477   C     0.27689   0.25377   0.42542   0.00000  Uiso   1.00
C478   C     0.30695   0.26789   0.42023   0.00000  Uiso   1.00
C479   C     0.25289   0.32143   0.50522   0.00000  Uiso   1.00
C480   C     0.26392   0.22040   0.40134   0.00000  Uiso   1.00
C481   C     0.20096   0.26272   0.44179   0.00000  Uiso   1.00
C482   C     0.17057   0.25110   0.44914   0.00000  Uiso   1.00
C483   C     0.16886   0.23354   0.47498   0.00000  Uiso   1.00
C484   C     0.19738   0.22735   0.49253   0.00000  Uiso   1.00
C485   C     0.22721   0.23903   0.48394   0.00000  Uiso   1.00
C486   C     0.14194   0.25705   0.43175   0.00000  Uiso   1.00
C487   C     0.11198   0.24594   0.44012   0.00000  Uiso   1.00
C488   C     0.10998   0.22875   0.46616   0.00000  Uiso   1.00
C489   C     0.13854   0.22249   0.48360   0.00000  Uiso   1.00
C490   C     0.13684   0.20555   0.50997   0.00000  Uiso   1.00
C491   C     0.16545   0.19947   0.52725   0.00000  Uiso   1.00
C492   C     0.19540   0.21016   0.51855   0.00000  Uiso   1.00
C493   C     0.08010   0.21799   0.47560   0.00000  Uiso   1.00
C494   C     0.10645   0.19550   0.51868   0.00000  Uiso   1.00
C495   C     0.04812   0.19295   0.51256   0.00000  Uiso   1.00
C496   C     0.04784   0.25139   0.55594   0.00000  Uiso   1.00
C497   C     1.00461   0.20634   0.55128   0.00000  Uiso   1.00
C498   C     0.04839   0.13538   0.46912   0.00000  Uiso   1.00
C499   C     1.00430   0.15102   0.51032   0.00000  Uiso   1.00
C500   C     0.03323   0.16034   0.49778   0.00000  Uiso   1.00
C501   C     0.03341   0.21617   0.53926   0.00000  Uiso   1.00
C502   C     0.99019   0.17375   0.53749   0.00000  Uiso   1.00
H503   H     0.07269   0.13036   0.47889   0.00000  Uiso   1.00
N504   N     0.22845   0.25678   0.45937   0.00000  Uiso   1.00
N505   N     0.07890   0.20196   0.50164   0.00000  Uiso   1.00
H506   H     0.05070   0.14568   0.44616   0.00000  Uiso   1.00
H507   H     0.31181   0.33923   0.48821   0.00000  Uiso   1.00
H508   H     0.32050   0.25486   0.39867   0.00000  Uiso   1.00
H509   H     0.26578   0.34574   0.51994   0.00000  Uiso   1.00
H510   H     0.22928   0.32697   0.49419   0.00000  Uiso   1.00
H511   H     0.24871   0.30638   0.52408   0.00000  Uiso   1.00
H512   H     0.24079   0.22349   0.38748   0.00000  Uiso   1.00
H513   H     0.28095   0.20984   0.38125   0.00000  Uiso   1.00
H514   H     0.25976   0.20213   0.41691   0.00000  Uiso   1.00
O515   O     0.25523   0.23326   0.50085   0.00000  Uiso   1.00
O516   O     0.20306   0.28072   0.41741   0.00000  Uiso   1.00
H517   H     0.14255   0.27044   0.41174   0.00000  Uiso   1.00
H518   H     0.21694   0.20521   0.53255   0.00000  Uiso   1.00
H519   H     0.09041   0.25109   0.42632   0.00000  Uiso   1.00
H520   H     0.05291   0.25507   0.58463   0.00000  Uiso   1.00
H521   H     0.07065   0.25691   0.54490   0.00000  Uiso   1.00
H522   H     0.99347   0.22430   0.57168   0.00000  Uiso   1.00
H523   H     0.16481   0.18660   0.54768   0.00000  Uiso   1.00
H524   H     0.03370   0.11109   0.46020   0.00000  Uiso   1.00
O525   O     0.10435   0.17954   0.54479   0.00000  Uiso   1.00
O526   O     0.05200   0.22414   0.45916   0.00000  Uiso   1.00
H527   H     0.03042   0.26978   0.55188   0.00000  Uiso   1.00
H528   H     0.05196   0.69590   0.73770   0.00000  Uiso   1.00
C529   C     0.95021   0.03550   0.66981   0.00000  Uiso   1.00
C530   C     0.96409   0.03572   0.70301   0.00000  Uiso   1.00
C531   C     0.97941   0.00765   0.70794   0.00000  Uiso   1.00
C532   C     0.98111   0.97907   0.67908   0.00000  Uiso   1.00
C533   C     0.96969   0.97995   0.64508   0.00000  Uiso   1.00
C534   C     0.95440   0.00824   0.64072   0.00000  Uiso   1.00
C535   C     0.99209   0.00744   0.74429   0.00000  Uiso   1.00
C536   C     0.97196   0.95000   0.61390   0.00000  Uiso   1.00
C537   C     0.96735   0.92723   0.69354   0.00000  Uiso   1.00
C538   C     0.97566   0.89740   0.70135   0.00000  Uiso   1.00
C539   C     1.00797   0.88877   0.69995   0.00000  Uiso   1.00
C540   C     0.03129   0.90976   0.69028   0.00000  Uiso   1.00
C541   C     0.02185   0.93954   0.68292   0.00000  Uiso   1.00
C542   C     0.95258   0.87638   0.71108   0.00000  Uiso   1.00
C543   C     0.96163   0.84761   0.72030   0.00000  Uiso   1.00
C544   C     0.99393   0.83915   0.71979   0.00000  Uiso   1.00
C545   C     1.01709   0.85947   0.70898   0.00000  Uiso   1.00
C546   C     0.04949   0.85107   0.70815   0.00000  Uiso   1.00
C547   C     0.07241   0.87169   0.69758   0.00000  Uiso   1.00
C548   C     0.06341   0.90074   0.68881   0.00000  Uiso   1.00
C549   C     1.00396   0.81160   0.73116   0.00000  Uiso   1.00
C550   C     0.05830   0.82294   0.71927   0.00000  Uiso   1.00
C551   C     0.04642   0.78058   0.74962   0.00000  Uiso   1.00
C552   C     0.06094   0.82860   0.80558   0.00000  Uiso   1.00
C553   C     0.06897   0.76866   0.80262   0.00000  Uiso   1.00
C554   C     0.03151   0.73317   0.69434   0.00000  Uiso   1.00
C555   C     0.05394   0.72265   0.75073   0.00000  Uiso   1.00
C556   C     0.04416   0.74572   0.73230   0.00000  Uiso   1.00
C557   C     0.05873   0.79195   0.78516   0.00000  Uiso   1.00
C558   C     0.06646   0.73404   0.78586   0.00000  Uiso   1.00
H559   H     0.04667   0.74461   0.67791   0.00000  Uiso   1.00
N560   N     0.99044   0.94783   0.68506   0.00000  Uiso   1.00
N561   N     0.03580   0.80462   0.73162   0.00000  Uiso   1.00
H562   H     0.00628   0.74012   0.69129   0.00000  Uiso   1.00
H563   H     0.96099   0.05677   0.72555   0.00000  Uiso   1.00
H564   H     0.94382   1.00801   0.61497   0.00000  Uiso   1.00
H565   H     0.98934   0.03188   0.76390   0.00000  Uiso   1.00
H566   H     0.97876   0.98740   0.75266   0.00000  Uiso   1.00
H567   H     1.01811   0.00266   0.74427   0.00000  Uiso   1.00
H568   H     0.95816   0.92780   0.61773   0.00000  Uiso   1.00
H569   H     0.96209   0.95473   0.58910   0.00000  Uiso   1.00
H570   H     0.99759   0.94423   0.61097   0.00000  Uiso   1.00
O571   O     0.04429   0.96065   0.67409   0.00000  Uiso   1.00
O572   O     0.93598   0.93613   0.69507   0.00000  Uiso   1.00
H573   H     0.92755   0.88237   0.71216   0.00000  Uiso   1.00
H574   H     0.08178   0.91631   0.68128   0.00000  Uiso   1.00
H575   H     0.94333   0.83234   0.72832   0.00000  Uiso   1.00
H576   H     0.08660   0.83720   0.81363   0.00000  Uiso   1.00
H577   H     0.05070   0.84512   0.79041   0.00000  Uiso   1.00
H578   H     0.07829   0.77771   0.82990   0.00000  Uiso   1.00
H579   H     0.09748   0.86580   0.69670   0.00000  Uiso   1.00
H580   H     0.03179   0.70536   0.68447   0.00000  Uiso   1.00
O581   O     0.08995   0.81501   0.71974   0.00000  Uiso   1.00
O582   O     0.98205   0.79274   0.74373   0.00000  Uiso   1.00
H583   H     1.04749   0.83183   0.82955   0.00000  Uiso   1.00
H584   H     0.87582   0.21589   0.69815   0.00000  Uiso   1.00
C585   C     0.07283   0.56073   0.81945   0.00000  Uiso   1.00
C586   C     0.08394   0.54150   0.78804   0.00000  Uiso   1.00
C587   C     0.07001   0.50896   0.77170   0.00000  Uiso   1.00
C588   C     0.04391   0.49608   0.78653   0.00000  Uiso   1.00
C589   C     0.03196   0.51605   0.81748   0.00000  Uiso   1.00
C590   C     0.04683   0.54798   0.83389   0.00000  Uiso   1.00
C591   C     0.08372   0.48776   0.73932   0.00000  Uiso   1.00
C592   C     1.00363   0.50330   0.83324   0.00000  Uiso   1.00
C593   C     0.03935   0.43730   0.78599   0.00000  Uiso   1.00
C594   C     0.02437   0.40470   0.77380   0.00000  Uiso   1.00
C595   C     0.00071   0.39768   0.74541   0.00000  Uiso   1.00
C596   C     0.99242   0.42323   0.72971   0.00000  Uiso   1.00
C597   C     0.00746   0.45573   0.74343   0.00000  Uiso   1.00
C598   C     0.03220   0.37916   0.78956   0.00000  Uiso   1.00
C599   C     0.01657   0.34709   0.77742   0.00000  Uiso   1.00
C600   C    -0.00695   0.33974   0.74900   0.00000  Uiso   1.00
C601   C     0.98523   0.36506   0.73279   0.00000  Uiso   1.00
C602   C     0.96201   0.35781   0.70395   0.00000  Uiso   1.00
C603   C     0.95420   0.38338   0.68820   0.00000  Uiso   1.00
C604   C     0.96911   0.41577   0.70105   0.00000  Uiso   1.00
C605   C     0.97732   0.30755   0.73609   0.00000  Uiso   1.00
C606   C     0.94743   0.32499   0.69142   0.00000  Uiso   1.00
C607   C     0.94159   0.26667   0.69316   0.00000  Uiso   1.00
C608   C    -0.00717   0.25043   0.66183   0.00000  Uiso   1.00
C609   C     0.94749   0.20850   0.66077   0.00000  Uiso   1.00
C610   C     0.89134   0.28279   0.72535   0.00000  Uiso   1.00
C611   C     0.89903   0.22333   0.69058   0.00000  Uiso   1.00
C612   C     0.91089   0.25720   0.70224   0.00000  Uiso   1.00
C613   C     0.95978   0.24207   0.67194   0.00000  Uiso   1.00
C614   C     0.91727   0.19886   0.66997   0.00000  Uiso   1.00
H615   H     0.88560   0.30267   0.71232   0.00000  Uiso   1.00
N616   N     0.03029   0.46218   0.77121   0.00000  Uiso   1.00
N617   N     0.95531   0.30066   0.70751   0.00000  Uiso   1.00
H618   H     0.90522   0.29448   0.75093   0.00000  Uiso   1.00
H619   H     0.10432   0.55132   0.77719   0.00000  Uiso   1.00
H620   H     0.03821   0.56304   0.85812   0.00000  Uiso   1.00
H621   H     0.10465   0.50117   0.73170   0.00000  Uiso   1.00
H622   H     0.09194   0.46420   0.74433   0.00000  Uiso   1.00
H623   H     0.06503   0.48135   0.71698   0.00000  Uiso   1.00
H624   H     1.00981   0.48074   0.84176   0.00000  Uiso   1.00
H625   H     0.99642   0.52259   0.85653   0.00000  Uiso   1.00
H626   H     0.98266   0.49655   0.81343   0.00000  Uiso   1.00
O627   O     0.99880   0.48126   0.72934   0.00000  Uiso   1.00
O628   O     0.06272   0.44445   0.81340   0.00000  Uiso   1.00
H629   H     0.05024   0.38392   0.81148   0.00000  Uiso   1.00
H630   H     0.96236   0.43491   0.68841   0.00000  Uiso   1.00
H631   H     0.02311   0.32806   0.79028   0.00000  Uiso   1.00
H632   H    -0.00660   0.24193   0.63284   0.00000  Uiso   1.00
H633   H    -0.00015   0.27777   0.67027   0.00000  Uiso   1.00
H634   H     0.96233   0.18952   0.64617   0.00000  Uiso   1.00
H635   H     0.93647   0.37848   0.66598   0.00000  Uiso   1.00
H636   H     0.86825   0.27119   0.73067   0.00000  Uiso   1.00
O637   O     0.92559   0.31716   0.66259   0.00000  Uiso   1.00
O638   O     0.98454   0.28264   0.75173   0.00000  Uiso   1.00
H639   H     0.01098   0.23723   0.67389   0.00000  Uiso   1.00
H640   H     0.01881   0.63343   0.92658   0.00000  Uiso   1.00
C641   C     0.69939   0.79492   0.05084   0.00000  Uiso   1.00
C642   C     0.71677   0.79758   0.02241   0.00000  Uiso   1.00
C643   C     0.74545   0.78153   0.01566   0.00000  Uiso   1.00
C644   C     0.75626   0.76097   0.03676   0.00000  Uiso   1.00
C645   C     0.73805   0.75701   0.06463   0.00000  Uiso   1.00
C646   C     0.71006   0.77471   0.07194   0.00000  Uiso   1.00
C647   C     0.76509   0.78783  -0.01300   0.00000  Uiso   1.00
C648   C     0.74842   0.73424   0.08658   0.00000  Uiso   1.00
C649   C     0.81359   0.75951   0.05138   0.00000  Uiso   1.00
C650   C     0.84407   0.74833   0.04213   0.00000  Uiso   1.00
C651   C     0.84631   0.72346   1.01022   0.00000  Uiso   1.00
C652   C     0.81808   0.70853   0.98942   0.00000  Uiso   1.00
C653   C     0.78803   0.71910   1.00083   0.00000  Uiso   1.00
C654   C     0.87238   0.76241   0.06311   0.00000  Uiso   1.00
C655   C     0.90258   0.75250   0.05210   0.00000  Uiso   1.00
C656   C     0.90514   0.72895   0.01946   0.00000  Uiso   1.00
C657   C     0.87689   0.71439   0.99847   0.00000  Uiso   1.00
C658   C     0.87914   0.69165   0.96520   0.00000  Uiso   1.00
C659   C     0.85083   0.67657   0.94486   0.00000  Uiso   1.00
C660   C     0.82062   0.68459   0.95705   0.00000  Uiso   1.00
C661   C     0.93528   0.72035   1.00664   0.00000  Uiso   1.00
C662   C     0.90970   0.68544   0.95263   0.00000  Uiso   1.00
C663   C     0.96785   0.69533   0.95840   0.00000  Uiso   1.00
C664   C     0.96991   0.75563   0.95220   0.00000  Uiso   1.00
C665   C     0.01199   0.71592   0.93054   0.00000  Uiso   1.00
C666   C     0.96693   0.63606   0.96560   0.00000  Uiso   1.00
C667   C     0.00914   0.65807   0.93309   0.00000  Uiso   1.00
C668   C     0.98160   0.66375   0.95220   0.00000  Uiso   1.00
C669   C     0.98349   0.72167   0.94765   0.00000  Uiso   1.00
C670   C     0.02412   0.68400   0.92201   0.00000  Uiso   1.00
H671   H     0.94245   0.62781   0.95266   0.00000  Uiso   1.00
N672   N     0.78640   0.74533   0.03034   0.00000  Uiso   1.00
N673   N     0.93703   0.69990   0.97326   0.00000  Uiso   1.00
H674   H     0.96529   0.64532   0.99448   0.00000  Uiso   1.00
H675   H     0.70895   0.81393   0.00666   0.00000  Uiso   1.00
H676   H     0.69672   0.77300   0.09414   0.00000  Uiso   1.00
H677   H     0.75439   0.80655   0.97488   0.00000  Uiso   1.00
H678   H     0.78985   0.79776  -0.00193   0.00000  Uiso   1.00
H679   H     0.76639   0.76416   0.96585   0.00000  Uiso   1.00
H680   H     0.77197   0.74390   0.10125   0.00000  Uiso   1.00
H681   H     0.73066   0.73250   0.10597   0.00000  Uiso   1.00
H682   H     0.75075   0.70852   0.06927   0.00000  Uiso   1.00
O683   O     0.76025   0.70455   0.98105   0.00000  Uiso   1.00
O684   O     0.81129   0.78607   0.08054   0.00000  Uiso   1.00
H685   H     0.87134   0.78141   0.08789   0.00000  Uiso   1.00
H686   H     0.79930   0.67281   0.94049   0.00000  Uiso   1.00
H687   H     0.92391   0.76409   0.06874   0.00000  Uiso   1.00
H688   H     0.96753   0.76132   0.92634   0.00000  Uiso   1.00
H689   H     0.94574   0.75710   0.96255   0.00000  Uiso   1.00
H690   H     0.02348   0.73583   0.92152   0.00000  Uiso   1.00
H691   H     0.85189   0.65877   0.91931   0.00000  Uiso   1.00
H692   H     0.98169   0.61378   0.96032   0.00000  Uiso   1.00
O693   O     0.91213   0.66581   0.91894   0.00000  Uiso   1.00
O694   O     0.96308   0.73397   0.02688   0.00000  Uiso   1.00
H695   H     0.98657   0.77523   0.97048   0.00000  Uiso   1.00
H696   H     0.43477   0.51276   0.39632   0.00000  Uiso   1.00
C697   C     0.54085   0.77229   0.20070   0.00000  Uiso   1.00
C698   C     0.53379   0.73995   0.17806   0.00000  Uiso   1.00
C699   C     0.52653   0.71259   0.19161   0.00000  Uiso   1.00
C700   C     0.52526   0.71801   0.22833   0.00000  Uiso   1.00
C701   C     0.53122   0.75085   0.25102   0.00000  Uiso   1.00
C702   C     0.53952   0.77756   0.23702   0.00000  Uiso   1.00
C703   C     0.52076   0.67774   0.16697   0.00000  Uiso   1.00
C704   C     0.52833   0.75757   0.29000   0.00000  Uiso   1.00
C705   C     0.54301   0.67689   0.25786   0.00000  Uiso   1.00
C706   C     0.53666   0.65097   0.27382   0.00000  Uiso   1.00
C707   C     0.50464   0.63807   0.27293   0.00000  Uiso   1.00
C708   C     0.47952   0.65150   0.25662   0.00000  Uiso   1.00
C709   C     0.48691   0.67815   0.24204   0.00000  Uiso   1.00
C710   C     0.56146   0.63777   0.29068   0.00000  Uiso   1.00
C711   C     0.55454   0.61207   0.30647   0.00000  Uiso   1.00
C712   C     0.52272   0.59867   0.30532   0.00000  Uiso   1.00
C713   C     0.49771   0.61165   0.28833   0.00000  Uiso   1.00
C714   C     0.46579   0.59818   0.28658   0.00000  Uiso   1.00
C715   C     0.44095   0.61159   0.27003   0.00000  Uiso   1.00
C716   C     0.44771   0.63810   0.25540   0.00000  Uiso   1.00
C717   C     0.51517   0.57238   0.32045   0.00000  Uiso   1.00
C718   C     0.45955   0.57138   0.30124   0.00000  Uiso   1.00
C719   C     0.47665   0.53074   0.33133   0.00000  Uiso   1.00
C720   C     0.49445   0.49014   0.27553   0.00000  Uiso   1.00
C721   C     0.46477   0.47041   0.31992   0.00000  Uiso   1.00
C722   C     0.46072   0.57098   0.38747   0.00000  Uiso   1.00
C723   C     0.44779   0.50846   0.37277   0.00000  Uiso   1.00
C724   C     0.46232   0.53597   0.36370   0.00000  Uiso   1.00
C725   C     0.47904   0.49753   0.31007   0.00000  Uiso   1.00
C726   C     0.44751   0.47586   0.35010   0.00000  Uiso   1.00
H727   H     0.44616   0.58623   0.37393   0.00000  Uiso   1.00
N728   N     0.51824   0.69018   0.24277   0.00000  Uiso   1.00
N729   N     0.48408   0.55903   0.31774   0.00000  Uiso   1.00
H730   H     0.48544   0.58315   0.39454   0.00000  Uiso   1.00
H731   H     0.53484   0.73595   0.14995   0.00000  Uiso   1.00
H732   H     0.54448   0.80272   0.25443   0.00000  Uiso   1.00
H733   H     0.52383   0.67764   0.13927   0.00000  Uiso   1.00
H734   H     0.53816   0.66082   0.17438   0.00000  Uiso   1.00
H735   H     0.49584   0.66772   0.16839   0.00000  Uiso   1.00
H736   H     0.54653   0.74401   0.30147   0.00000  Uiso   1.00
H737   H     0.53220   0.78483   0.30379   0.00000  Uiso   1.00
H738   H     0.50384   0.74889   0.29488   0.00000  Uiso   1.00
O739   O     0.46258   0.69237   0.22724   0.00000  Uiso   1.00
O740   O     0.57420   0.68917   0.25770   0.00000  Uiso   1.00
H741   H     0.58627   0.64737   0.29187   0.00000  Uiso   1.00
H742   H     0.42796   0.64788   0.24294   0.00000  Uiso   1.00
H743   H     0.57422   0.60261   0.31935   0.00000  Uiso   1.00
H744   H     0.47625   0.47737   0.25379   0.00000  Uiso   1.00
H745   H     0.50463   0.51307   0.26962   0.00000  Uiso   1.00
H746   H     0.46489   0.44526   0.30235   0.00000  Uiso   1.00
H747   H     0.41618   0.60171   0.26839   0.00000  Uiso   1.00
H748   H     0.44952   0.57074   0.41218   0.00000  Uiso   1.00
O749   O     0.42867   0.55731   0.29878   0.00000  Uiso   1.00
O750   O     0.53913   0.55952   0.33729   0.00000  Uiso   1.00
H751   H     0.51434   0.47328   0.27612   0.00000  Uiso   1.00
loop_
_geom_bond_atom_site_label_1
_geom_bond_atom_site_label_2
_geom_bond_distance
_geom_bond_site_symmetry_2
_ccdc_geom_bond_type
Y0     O10     2.243   .     S
Y0     O12     2.256   .     S
Y0     O13     2.259   .     S
Y0     O14     2.266   .     S
Y0     O15     2.257   .     S
Y0     O17     2.219   .     S
Y1     O8      2.262   .     S
Y1     O9      2.262   .     S
Y1     O11     2.267   .     S
Y1     O16     2.240   .     S
Y1     O18     2.282   .     S
Y1     O19     2.240   .     S
C2     O8      1.258   .     A
C2     O9      1.257   .     A
C2     C670    1.466   .     S
C3     O10     1.273   .     A
C3     O11     1.279   .     A
C3     C585    1.470   .     S
C4     O12     1.261   .     A
C4     O13     1.262   .     A
C4     C417    1.473   .     S
C5     O14     1.261   .     A
C5     O15     1.260   .     A
C5     C390    1.476   .     S
C6     O16     1.264   .     A
C6     O17     1.263   .     A
C6     C110    1.476   .     S
C7     O18     1.263   .     A
C7     O19     1.255   .     A
C7     C558    1.476   .     S
Y20    O30     2.254   .     S
Y20    O32     2.258   .     S
Y20    O33     2.243   .     S
Y20    O34     2.250   .     S
Y20    O35     2.256   .     S
Y20    O37     2.222   .     S
Y21    O28     2.241   .     S
Y21    O29     2.265   .     S
Y21    O31     2.270   .     S
Y21    O36     2.254   .     S
Y21    O38     2.245   .     S
Y21    O39     2.272   .     S
C22    O28     1.260   .     A
C22    O29     1.263   .     A
C22    C641    1.469   .     S
C23    O30     1.270   .     A
C23    O31     1.277   .     A
C23    C334    1.463   .     S
C24    O32     1.266   .     A
C24    O33     1.265   .     A
C24    C697    1.471   .     S
C25    O34     1.265   .     A
C25    O35     1.265   .     A
C25    C166    1.476   .     S
C26    O36     1.263   .     A
C26    O37     1.265   .     A
C26    C81     1.485   .     S
C27    O38     1.255   .     A
C27    O39     1.260   .     A
C27    C278    1.470   .     S
Y40    O50     2.243   .     S
Y40    O52     2.241   .     S
Y40    O53     2.262   .     S
Y40    O54     2.248   .     S
Y40    O55     2.256   .     S
Y40    O57     2.225   .     S
Y41    O48     2.260   .     S
Y41    O49     2.255   .     S
Y41    O51     2.261   .     S
Y41    O56     2.252   .     S
Y41    O58     2.255   .     S
Y41    O59     2.264   .     S
C42    O48     1.261   .     A
C42    O49     1.259   .     A
C42    C529    1.475   .     S
C43    O50     1.272   .     A
C43    O51     1.277   .     A
C43    C305    1.472   .     S
C44    O52     1.263   .     A
C44    O53     1.267   .     A
C44    C502    1.476   .     S
C45    O54     1.264   .     A
C45    O55     1.266   .     A
C45    C193    1.477   .     S
C46    O56     1.265   .     A
C46    O57     1.264   .     A
C46    C614    1.476   .     S
C47    O58     1.257   .     A
C47    O59     1.259   .     A
C47    C249    1.471   .     S
Y60    O70     2.251   .     S
Y60    O72     2.249   .     S
Y60    O73     2.262   .     S
Y60    O74     2.245   .     S
Y60    O75     2.265   .     S
Y60    O77     2.208   .     S
Y61    O68     2.259   .     S
Y61    O69     2.261   .     S
Y61    O71     2.286   .     S
Y61    O76     2.246   .     S
Y61    O78     2.272   .     S
Y61    O79     2.252   .     S
C62    O68     1.259   .     A
C62    O69     1.260   .     A
C62    C726    1.476   .     S
C63    O70     1.280   .     A
C63    O71     1.282   .     A
C63    C361    1.467   .     S
C64    O72     1.261   .     A
C64    O73     1.264   .     A
C64    C222    1.477   .     S
C65    O74     1.261   .     A
C65    O75     1.265   .     A
C65    C473    1.477   .     S
C66    O76     1.259   .     A
C66    O77     1.261   .     A
C66    C137    1.470   .     S
C67    O78     1.261   .     A
C67    O79     1.257   .     A
C67    C446    1.477   .     S
H80    C107    1.084   .     S
C81    C82     1.400   .     A
C81    C86     1.405   .     A
C82    C83     1.406   .     A
C82    H115    1.073   .     S
C83    C84     1.411   .     A
C83    C87     1.505   .     S
C84    C85     1.410   .     A
C84    N112    1.441   .     S
C85    C86     1.401   .     A
C85    C88     1.506   1_554 S
C86    H116    1.083   .     S
C87    H117    1.111   .     S
C87    H118    1.110   .     S
C87    H119    1.110   .     S
C88    H120    1.110   .     S
C88    H121    1.111   .     S
C88    H122    1.110   .     S
C88    C85     1.506   1_556 S
C89    C90     1.406   .     A
C89    N112    1.370   .     A
C89    O124    1.373   .     S
C90    C91     1.409   .     A
C90    C94     1.405   .     A
C91    C92     1.409   .     A
C91    C97     1.414   1_554 A
C92    C93     1.405   .     A
C92    C100    1.405   1_554 A
C93    N112    1.370   .     A
C93    O123    1.373   .     S
C94    C95     1.397   .     A
C94    H125    1.083   .     S
C95    H127    1.083   .     S
C95    C96     1.405   1_554 A
C96    C97     1.409   .     A
C96    C101    1.405   .     A
C96    C95     1.405   1_556 A
C97    C98     1.409   .     A
C97    C91     1.414   1_556 A
C98    C99     1.405   .     A
C98    C102    1.406   .     A
C99    C100    1.397   .     A
C99    H131    1.083   .     S
C100   H126    1.083   .     S
C100   C92     1.405   1_556 A
C101   N113    1.370   .     A
C101   O134    1.373   .     S
C102   N113    1.370   .     A
C102   O133    1.373   .     S
C103   C108    1.414   .     A
C103   C109    1.414   .     A
C103   N113    1.441   .     S
C104   H128    1.110   .     S
C104   H129    1.108   .     S
C104   H135    1.110   .     S
C104   C109    1.506   1_554 S
C105   C109    1.400   .     A
C105   C110    1.401   .     A
C105   H130    1.084   .     S
C106   C108    1.505   .     S
C106   H111    1.110   .     S
C106   H114    1.110   .     S
C106   H132    1.111   .     S
C107   C108    1.403   .     A
C107   C110    1.402   .     A
C109   C104    1.506   1_556 S
H136   C163    1.082   .     S
C137   C138    1.401   .     A
C137   C142    1.399   .     A
C138   C139    1.405   .     A
C138   H171    1.084   .     S
C139   C140    1.413   .     A
C139   C143    1.504   .     S
C140   C141    1.411   .     A
C140   N168    1.441   .     S
C141   C142    1.401   .     A
C141   C144    1.505   .     S
C142   H172    1.084   .     S
C143   H173    1.111   .     S
C143   H174    1.110   .     S
C143   H175    1.110   .     S
C144   H176    1.110   .     S
C144   H177    1.111   .     S
C144   H178    1.110   .     S
C145   C146    1.405   .     A
C145   N168    1.370   .     A
C145   O180    1.373   .     S
C146   C147    1.409   .     A
C146   C150    1.405   .     A
C147   C148    1.409   .     A
C147   C153    1.414   .     A
C148   C149    1.406   .     A
C148   C156    1.405   .     A
C149   N168    1.370   .     A
C149   O179    1.373   .     S
C150   C151    1.397   .     A
C150   H181    1.083   .     S
C151   C152    1.405   .     A
C151   H183    1.083   .     S
C152   C153    1.409   .     A
C152   C157    1.405   .     A
C153   C154    1.409   .     A
C154   C155    1.405   .     A
C154   C158    1.406   .     A
C155   C156    1.398   .     A
C155   H187    1.083   .     S
C156   H182    1.083   .     S
C157   N169    1.370   .     A
C157   O190    1.373   .     S
C158   N169    1.370   .     A
C158   O189    1.373   .     S
C159   C164    1.413   .     A
C159   N169    1.441   .     S
C159   C165    1.415   1_545 A
C160   C165    1.506   .     S
C160   H184    1.110   .     S
C160   H191    1.110   .     S
C160   H185    1.109   1_565 S
C161   C165    1.403   .     A
C161   C166    1.401   .     A
C161   H186    1.084   .     S
C162   C164    1.506   .     S
C162   H167    1.110   .     S
C162   H170    1.110   .     S
C162   H188    1.111   .     S
C163   C166    1.401   .     A
C163   C164    1.403   1_565 A
C164   C163    1.403   1_545 A
C165   C159    1.415   1_565 A
H185   C160    1.109   1_545 S
H192   C219    1.083   .     S
C193   C194    1.403   .     A
C193   C198    1.403   .     A
C194   C195    1.403   .     A
C194   H227    1.084   .     S
C195   C196    1.412   .     A
C195   C199    1.505   .     S
C196   C197    1.412   .     A
C196   N224    1.442   .     S
C197   C198    1.405   .     A
C197   C200    1.505   .     S
C198   H228    1.084   .     S
C199   H229    1.110   .     S
C199   H230    1.110   .     S
C199   H231    1.110   .     S
C200   H232    1.110   .     S
C200   H233    1.111   .     S
C200   H234    1.110   .     S
C201   C202    1.407   .     A
C201   N224    1.370   .     A
C201   O236    1.373   .     S
C202   C203    1.409   .     A
C202   C206    1.406   .     A
C203   C204    1.409   .     A
C203   C209    1.415   .     A
C204   C205    1.405   .     A
C204   C212    1.405   .     A
C205   N224    1.370   .     A
C205   O235    1.373   .     S
C206   C207    1.398   .     A
C206   H237    1.083   .     S
C207   C208    1.406   .     A
C207   H239    1.083   .     S
C208   C209    1.409   .     A
C208   C213    1.407   .     A
C209   C210    1.409   .     A
C210   C211    1.405   .     A
C210   C214    1.405   .     A
C211   C212    1.397   .     A
C211   H243    1.083   .     S
C212   H238    1.083   .     S
C213   N225    1.370   .     A
C213   O246    1.373   .     S
C214   N225    1.370   .     A
C214   O245    1.373   .     S
C215   C220    1.413   .     A
C215   C221    1.414   .     A
C215   N225    1.441   .     S
C216   C221    1.506   .     S
C216   H240    1.111   .     S
C216   H241    1.108   .     S
C216   H247    1.111   .     S
C217   C221    1.401   .     A
C217   C222    1.401   .     A
C217   H242    1.083   .     S
C218   C220    1.504   .     S
C218   H223    1.110   .     S
C218   H226    1.110   .     S
C218   H244    1.111   .     S
C219   C220    1.405   .     A
C219   C222    1.401   .     A
H248   C275    1.084   .     S
C249   C250    1.401   .     A
C249   C254    1.400   .     A
C250   C251    1.401   1_545 A
C250   H283    1.084   1_545 S
C251   C255    1.507   .     S
C251   C250    1.401   1_565 A
C251   C252    1.413   1_565 A
C252   C253    1.414   .     A
C252   N280    1.441   .     S
C252   C251    1.413   1_545 A
C253   C254    1.403   .     A
C253   C256    1.505   .     S
C254   H284    1.084   .     S
C255   H285    1.111   .     S
C255   H286    1.110   .     S
C255   H287    1.109   .     S
C256   H288    1.109   .     S
C256   H289    1.111   .     S
C256   H290    1.110   .     S
C257   N280    1.371   .     A
C257   O292    1.373   .     S
C257   C258    1.403   1_545 A
C258   C259    1.408   .     A
C258   C257    1.403   1_565 A
C258   C262    1.405   1_565 A
C259   C260    1.409   .     A
C259   C265    1.413   .     A
C260   C261    1.405   .     A
C260   C268    1.405   .     A
C261   O291    1.373   .     S
C261   N280    1.370   1_565 A
C262   H293    1.083   .     S
C262   C258    1.405   1_545 A
C262   C263    1.396   1_545 A
C263   C264    1.405   .     A
C263   H295    1.083   .     S
C263   C262    1.396   1_565 A
C264   C265    1.409   .     A
C264   C269    1.404   .     A
C265   C266    1.408   .     A
C266   C267    1.406   .     A
C266   C270    1.404   .     A
C267   C268    1.397   .     A
C267   H299    1.083   .     S
C268   H294    1.083   .     S
C269   N281    1.370   .     A
C269   O302    1.373   .     S
C270   N281    1.371   .     A
C270   O301    1.373   .     S
C271   C276    1.416   .     A
C271   C277    1.415   .     A
C271   N281    1.440   .     S
C272   C277    1.508   .     S
C272   H296    1.111   .     S
C272   H297    1.107   .     S
C272   H303    1.111   .     S
C273   C278    1.401   .     A
C273   H298    1.085   .     S
C273   C277    1.397   1_554 A
C274   C276    1.505   .     S
C274   H279    1.109   .     S
C274   H282    1.110   1_565 S
C274   H300    1.111   1_566 S
C275   C278    1.400   .     A
C275   C276    1.405   1_554 A
C276   C275    1.405   1_556 A
C277   C273    1.397   1_556 A
N280   C261    1.370   1_545 A
H282   C274    1.110   1_545 S
H283   C250    1.084   1_565 S
H300   C274    1.111   1_544 S
H304   C331    1.085   .     S
C305   C306    1.401   .     A
C305   C310    1.401   .     A
C306   C307    1.403   .     A
C306   H339    1.084   .     S
C307   C308    1.413   .     A
C307   C311    1.505   .     S
C308   C309    1.412   .     A
C308   N336    1.441   .     S
C309   C310    1.401   .     A
C309   C312    1.506   1_545 S
C310   H340    1.084   .     S
C311   H341    1.111   .     S
C311   H342    1.109   .     S
C311   H343    1.109   .     S
C312   H344    1.109   .     S
C312   H345    1.111   .     S
C312   H346    1.110   .     S
C312   C309    1.506   1_565 S
C313   C314    1.405   .     A
C313   N336    1.370   .     A
C313   O348    1.373   .     S
C314   C318    1.405   .     A
C314   C315    1.409   1_545 A
C315   C316    1.408   .     A
C315   C321    1.413   .     A
C315   C314    1.409   1_565 A
C316   C317    1.404   .     A
C316   C324    1.405   .     A
C317   O347    1.373   .     S
C317   N336    1.370   1_565 A
C318   C319    1.397   .     A
C318   H349    1.083   .     S
C319   H351    1.083   .     S
C319   C320    1.405   1_545 A
C320   C321    1.408   .     A
C320   C325    1.405   .     A
C320   C319    1.405   1_565 A
C321   C322    1.409   .     A
C322   C323    1.405   .     A
C322   C326    1.404   .     A
C323   C324    1.397   .     A
C323   H355    1.083   .     S
C324   H350    1.083   .     S
C325   N337    1.371   .     A
C325   O358    1.373   .     S
C326   N337    1.370   .     A
C326   O357    1.373   .     S
C327   C332    1.413   .     A
C327   C333    1.418   .     A
C327   N337    1.441   .     S
C328   C333    1.505   .     S
C328   H352    1.109   .     S
C328   H353    1.108   .     S
C328   H359    1.110   .     S
C329   C333    1.404   .     A
C329   C334    1.397   .     A
C329   H354    1.084   .     S
C330   C332    1.506   .     S
C330   H335    1.109   .     S
C330   H338    1.110   .     S
C330   H356    1.111   .     S
C331   C332    1.399   .     A
C331   C334    1.397   .     A
N336   C317    1.370   1_545 A
H360   C387    1.084   .     S
C361   C362    1.400   .     A
C361   C366    1.398   .     A
C362   C363    1.409   .     A
C362   H395    1.084   .     S
C363   C364    1.414   .     A
C363   C367    1.503   .     S
C364   C365    1.412   .     A
C364   N392    1.442   .     S
C365   C366    1.398   .     A
C365   C368    1.506   .     S
C366   H396    1.083   .     S
C367   H397    1.111   .     S
C367   H398    1.110   .     S
C367   H399    1.110   .     S
C368   H400    1.110   .     S
C368   H401    1.111   .     S
C368   H402    1.110   .     S
C369   C370    1.407   .     A
C369   N392    1.370   .     A
C369   O404    1.373   .     S
C370   C371    1.409   .     A
C370   C374    1.405   .     A
C371   C372    1.408   .     A
C371   C377    1.415   .     A
C372   C373    1.405   .     A
C372   C380    1.405   .     A
C373   N392    1.371   .     A
C373   O403    1.373   .     S
C374   C375    1.398   .     A
C374   H405    1.083   .     S
C375   C376    1.406   .     A
C375   H407    1.083   .     S
C376   C377    1.408   .     A
C376   C381    1.406   .     A
C377   C378    1.409   .     A
C378   C379    1.405   .     A
C378   C382    1.406   .     A
C379   C380    1.397   .     A
C379   H411    1.083   .     S
C380   H406    1.083   .     S
C381   N393    1.371   .     A
C381   O414    1.373   .     S
C382   N393    1.370   .     A
C382   O413    1.373   .     S
C383   C388    1.414   .     A
C383   C389    1.415   .     A
C383   N393    1.443   .     S
C384   C389    1.506   .     S
C384   H408    1.110   .     S
C384   H409    1.109   .     S
C384   H415    1.110   .     S
C385   C389    1.405   .     A
C385   C390    1.402   .     A
C385   H410    1.084   .     S
C386   C388    1.505   .     S
C386   H391    1.110   .     S
C386   H394    1.109   .     S
C386   H412    1.111   .     S
C387   C388    1.402   .     A
C387   C390    1.400   .     A
H416   C443    1.084   .     S
C417   C418    1.401   .     A
C417   C422    1.401   .     A
C418   H451    1.084   .     S
C418   C419    1.403   1_556 A
C419   C420    1.413   .     A
C419   C423    1.505   .     S
C419   C418    1.403   1_554 A
C420   N448    1.443   .     S
C420   C421    1.414   1_554 A
C421   C422    1.404   .     A
C421   C424    1.506   .     S
C421   C420    1.414   1_556 A
C422   H452    1.084   .     S
C423   H453    1.111   .     S
C423   H454    1.110   .     S
C423   H455    1.109   .     S
C424   H456    1.109   .     S
C424   H457    1.111   .     S
C424   H458    1.110   .     S
C425   C426    1.406   .     A
C425   N448    1.370   .     A
C425   O460    1.373   .     S
C426   C427    1.408   .     A
C426   C430    1.406   .     A
C427   C428    1.409   .     A
C427   C433    1.414   .     A
C428   C429    1.406   .     A
C428   C436    1.406   .     A
C429   N448    1.371   .     A
C429   O459    1.373   .     S
C430   C431    1.398   .     A
C430   H461    1.083   .     S
C431   C432    1.405   .     A
C431   H463    1.083   .     S
C432   C433    1.409   .     A
C432   C437    1.407   .     A
C433   C434    1.408   .     A
C434   C435    1.405   .     A
C434   C438    1.405   .     A
C435   C436    1.397   .     A
C435   H467    1.083   .     S
C436   H462    1.083   .     S
C437   N449    1.370   .     A
C437   O470    1.373   .     S
C438   N449    1.371   .     A
C438   O469    1.373   .     S
C439   C444    1.412   .     A
C439   C445    1.415   .     A
C439   N449    1.441   .     S
C440   C445    1.505   .     S
C440   H464    1.110   .     S
C440   H465    1.108   .     S
C440   H471    1.110   .     S
C441   C445    1.404   .     A
C441   C446    1.402   .     A
C441   H466    1.084   .     S
C442   C444    1.506   .     S
C442   H447    1.110   .     S
C442   H450    1.110   .     S
C442   H468    1.111   .     S
C443   C444    1.401   .     A
C443   C446    1.402   .     A
H472   C499    1.084   .     S
C473   C474    1.402   .     A
C473   C478    1.402   .     A
C474   C475    1.401   .     A
C474   H507    1.083   .     S
C475   C476    1.411   .     A
C475   C479    1.506   .     S
C476   C477    1.413   .     A
C476   N504    1.442   .     S
C477   C478    1.406   .     A
C477   C480    1.504   .     S
C478   H508    1.083   .     S
C479   H509    1.111   .     S
C479   H510    1.110   .     S
C479   H511    1.110   .     S
C480   H512    1.110   .     S
C480   H513    1.111   .     S
C480   H514    1.110   .     S
C481   C482    1.407   .     A
C481   N504    1.370   .     A
C481   O516    1.373   .     S
C482   C483    1.409   .     A
C482   C486    1.406   .     A
C483   C484    1.409   .     A
C483   C489    1.414   .     A
C484   C485    1.405   .     A
C484   C492    1.405   .     A
C485   N504    1.370   .     A
C485   O515    1.373   .     S
C486   C487    1.398   .     A
C486   H517    1.083   .     S
C487   C488    1.405   .     A
C487   H519    1.083   .     S
C488   C489    1.409   .     A
C488   C493    1.407   .     A
C489   C490    1.408   .     A
C490   C491    1.405   .     A
C490   C494    1.405   .     A
C491   C492    1.396   .     A
C491   H523    1.083   .     S
C492   H518    1.083   .     S
C493   N505    1.370   .     A
C493   O526    1.373   .     S
C494   N505    1.370   .     A
C494   O525    1.373   .     S
C495   C500    1.413   .     A
C495   C501    1.413   .     A
C495   N505    1.441   .     S
C496   C501    1.506   .     S
C496   H520    1.110   .     S
C496   H521    1.108   .     S
C496   H527    1.110   .     S
C497   C502    1.401   .     A
C497   H522    1.082   .     S
C497   C501    1.399   1_655 A
C498   C500    1.504   .     S
C498   H503    1.110   .     S
C498   H506    1.110   .     S
C498   H524    1.111   .     S
C499   C502    1.402   .     A
C499   C500    1.406   1_655 A
C500   C499    1.406   1_455 A
C501   C497    1.399   1_455 A
H528   C555    1.083   .     S
C529   C530    1.402   .     A
C529   C534    1.403   .     A
C530   C531    1.403   .     A
C530   H563    1.084   .     S
C531   C535    1.505   .     S
C531   C532    1.412   1_545 A
C532   C533    1.411   .     A
C532   N560    1.441   .     S
C532   C531    1.412   1_565 A
C533   C536    1.505   .     S
C533   C534    1.403   1_565 A
C534   C533    1.403   1_545 A
C534   H564    1.084   1_545 S
C535   H565    1.111   .     S
C535   H567    1.110   .     S
C535   H566    1.110   1_545 S
C536   H568    1.110   .     S
C536   H569    1.111   .     S
C536   H570    1.110   .     S
C537   C538    1.403   .     A
C537   N560    1.371   .     A
C537   O572    1.373   .     S
C538   C539    1.408   .     A
C538   C542    1.405   .     A
C539   C545    1.414   .     A
C539   C540    1.410   1_655 A
C540   C541    1.408   .     A
C540   C548    1.405   .     A
C540   C539    1.410   1_455 A
C541   O571    1.373   .     S
C541   N560    1.369   1_455 A
C542   C543    1.396   .     A
C542   H573    1.083   .     S
C543   C544    1.405   .     A
C543   H575    1.083   .     S
C544   C545    1.409   .     A
C544   C549    1.405   .     A
C545   C546    1.408   1_655 A
C546   C547    1.406   .     A
C546   C550    1.406   .     A
C546   C545    1.408   1_455 A
C547   C548    1.398   .     A
C547   H579    1.083   .     S
C548   H574    1.083   .     S
C549   O582    1.373   .     S
C549   N561    1.370   1_655 A
C550   N561    1.371   .     A
C550   O581    1.373   .     S
C551   C556    1.415   .     A
C551   C557    1.413   .     A
C551   N561    1.441   .     S
C552   C557    1.508   .     S
C552   H576    1.110   .     S
C552   H577    1.107   .     S
C552   H583    1.111   1_455 S
C553   C557    1.396   .     A
C553   C558    1.401   .     A
C553   H578    1.084   .     S
C554   C556    1.504   .     S
C554   H559    1.110   .     S
C554   H562    1.110   .     S
C554   H580    1.111   .     S
C555   C556    1.409   .     A
C555   C558    1.402   .     A
N560   C541    1.369   1_655 A
N561   C549    1.370   1_455 A
H564   C534    1.084   1_565 S
H566   C535    1.110   1_565 S
H583   C552    1.111   1_655 S
H584   C611    1.084   .     S
C585   C586    1.400   .     A
C585   C590    1.400   .     A
C586   C587    1.406   .     A
C586   H619    1.084   .     S
C587   C588    1.414   .     A
C587   C591    1.504   .     S
C588   C589    1.412   .     A
C588   N616    1.442   .     S
C589   C590    1.400   .     A
C589   C592    1.506   1_455 S
C590   H620    1.084   .     S
C591   H621    1.111   .     S
C591   H622    1.110   .     S
C591   H623    1.109   .     S
C592   H624    1.110   .     S
C592   H625    1.111   .     S
C592   H626    1.110   .     S
C592   C589    1.506   1_655 S
C593   C594    1.405   .     A
C593   N616    1.371   .     A
C593   O628    1.373   .     S
C594   C595    1.408   .     A
C594   C598    1.405   .     A
C595   C596    1.409   1_455 A
C595   C601    1.414   1_455 A
C596   C604    1.406   .     A
C596   C595    1.409   1_655 A
C596   C597    1.407   1_655 A
C597   N616    1.370   .     A
C597   C596    1.407   1_455 A
C597   O627    1.373   1_455 S
C598   C599    1.396   .     A
C598   H629    1.083   .     S
C599   C600    1.405   .     A
C599   H631    1.083   .     S
C600   C601    1.408   1_455 A
C600   C605    1.405   1_455 A
C601   C602    1.409   .     A
C601   C595    1.414   1_655 A
C601   C600    1.408   1_655 A
C602   C603    1.406   .     A
C602   C606    1.407   .     A
C603   C604    1.398   .     A
C603   H635    1.083   .     S
C604   H630    1.083   .     S
C605   N617    1.371   .     A
C605   O638    1.373   .     S
C605   C600    1.405   1_655 A
C606   N617    1.370   .     A
C606   O637    1.373   .     S
C607   C612    1.414   .     A
C607   C613    1.414   .     A
C607   N617    1.442   .     S
C608   H632    1.108   .     S
C608   H633    1.108   .     S
C608   H639    1.110   .     S
C608   C613    1.506   1_455 S
C609   C613    1.400   .     A
C609   C614    1.400   .     A
C609   H634    1.083   .     S
C610   C612    1.505   .     S
C610   H615    1.110   .     S
C610   H618    1.110   .     S
C610   H636    1.111   .     S
C611   C612    1.406   .     A
C611   C614    1.402   .     A
C613   C608    1.506   1_655 S
O627   C597    1.373   1_655 S
H640   C667    1.084   .     S
C641   C642    1.400   .     A
C641   C646    1.400   .     A
C642   C643    1.397   .     A
C642   H675    1.084   .     S
C643   C644    1.414   .     A
C643   C647    1.508   .     S
C644   C645    1.416   .     A
C644   N672    1.442   .     S
C645   C646    1.408   .     A
C645   C648    1.504   .     S
C646   H676    1.084   .     S
C647   H678    1.110   .     S
C647   H677    1.111   1_554 S
C647   H679    1.109   1_554 S
C648   H680    1.109   .     S
C648   H681    1.111   .     S
C648   H682    1.110   .     S
C649   C650    1.406   .     A
C649   N672    1.372   .     A
C649   O684    1.373   .     S
C650   C654    1.406   .     A
C650   C651    1.408   1_554 A
C651   C652    1.408   .     A
C651   C657    1.413   .     A
C651   C650    1.408   1_556 A
C652   C653    1.404   .     A
C652   C660    1.405   .     A
C653   O683    1.373   .     S
C653   N672    1.370   1_556 A
C654   C655    1.398   .     A
C654   H685    1.083   .     S
C655   C656    1.405   .     A
C655   H687    1.083   .     S
C656   C657    1.409   1_554 A
C656   C661    1.406   1_554 A
C657   C658    1.407   .     A
C657   C656    1.409   1_556 A
C658   C659    1.405   .     A
C658   C662    1.403   .     A
C659   C660    1.396   .     A
C659   H691    1.083   .     S
C660   H686    1.083   .     S
C661   N673    1.371   .     A
C661   C656    1.406   1_556 A
C661   O694    1.373   1_556 S
C662   N673    1.371   .     A
C662   O693    1.373   .     S
C663   C668    1.416   .     A
C663   C669    1.417   .     A
C663   N673    1.443   .     S
C664   C669    1.507   .     S
C664   H688    1.111   .     S
C664   H689    1.107   .     S
C664   H695    1.110   .     S
C665   C670    1.397   .     A
C665   H690    1.085   .     S
C665   C669    1.399   1_455 A
C666   C668    1.505   .     S
C666   H671    1.108   .     S
C666   H674    1.110   .     S
C666   H692    1.111   .     S
C667   C670    1.398   .     A
C667   C668    1.405   1_455 A
C668   C667    1.405   1_655 A
C669   C665    1.399   1_655 A
N672   C653    1.370   1_554 A
H677   C647    1.111   1_556 S
H679   C647    1.109   1_556 S
O694   C661    1.373   1_554 S
H696   C723    1.084   .     S
C697   C698    1.400   .     A
C697   C702    1.400   .     A
C698   C699    1.405   .     A
C698   H731    1.084   .     S
C699   C700    1.414   .     A
C699   C703    1.505   .     S
C700   C701    1.412   .     A
C700   N728    1.442   .     S
C701   C702    1.401   .     A
C701   C704    1.506   .     S
C702   H732    1.084   .     S
C703   H733    1.111   .     S
C703   H734    1.110   .     S
C703   H735    1.109   .     S
C704   H736    1.109   .     S
C704   H737    1.111   .     S
C704   H738    1.110   .     S
C705   C706    1.406   .     A
C705   N728    1.371   .     A
C705   O740    1.373   .     S
C706   C707    1.408   .     A
C706   C710    1.406   .     A
C707   C708    1.409   .     A
C707   C713    1.414   .     A
C708   C709    1.405   .     A
C708   C716    1.405   .     A
C709   N728    1.370   .     A
C709   O739    1.373   .     S
C710   C711    1.398   .     A
C710   H741    1.083   .     S
C711   C712    1.405   .     A
C711   H743    1.083   .     S
C712   C713    1.410   .     A
C712   C717    1.408   .     A
C713   C714    1.407   .     A
C714   C715    1.405   .     A
C714   C718    1.404   .     A
C715   C716    1.396   .     A
C715   H747    1.083   .     S
C716   H742    1.083   .     S
C717   N729    1.370   .     A
C717   O750    1.372   .     S
C718   N729    1.371   .     A
C718   O749    1.374   .     S
C719   C724    1.413   .     A
C719   C725    1.415   .     A
C719   N729    1.442   .     S
C720   C725    1.507   .     S
C720   H744    1.110   .     S
C720   H745    1.108   .     S
C720   H751    1.110   .     S
C721   C725    1.402   .     A
C721   C726    1.402   .     A
C721   H746    1.084   .     S
C722   C724    1.505   .     S
C722   H727    1.110   .     S
C722   H730    1.110   .     S
C722   H748    1.111   .     S
C723   C724    1.404   .     A
C723   C726    1.402   .     A
