data_lcy+N106+E1
_audit_creation_date              2025-01-21
_audit_creation_method            'Materials Studio'
_symmetry_space_group_name_H-M    'P1'
_symmetry_Int_Tables_number       1
_symmetry_cell_setting            triclinic
loop_
_symmetry_equiv_pos_as_xyz
  x,y,z
_cell_length_a                    33.2844
_cell_length_b                    32.4764
_cell_length_c                    33.4763
_cell_angle_alpha                 98.3498
_cell_angle_beta                  97.3682
_cell_angle_gamma                 91.0819
loop_
_atom_site_label
_atom_site_type_symbol
_atom_site_fract_x
_atom_site_fract_y
_atom_site_fract_z
_atom_site_U_iso_or_equiv
_atom_site_adp_type
_atom_site_occupancy
Y0     Y     0.12078   0.64987   0.82434   0.00000  Uiso   1.00
Y1     Y     0.15599   0.59674   0.89179   0.00000  Uiso   1.00
O2     O     0.15949   0.60689   0.78897   0.00000  Uiso   1.00
O3     O     0.11658   0.58092   0.83076   0.00000  Uiso   1.00
C4     C     0.19498   0.56342   0.95450   0.00000  Uiso   1.00
O5     O     0.09502   0.56278   0.88336   0.00000  Uiso   1.00
O6     O     0.09689   0.71160   0.81384   0.00000  Uiso   1.00
O7     O     0.08423   0.66234   0.76529   0.00000  Uiso   1.00
O8     O     0.19689   0.58304   0.84162   0.00000  Uiso   1.00
O9     O     0.16242   0.66457   0.88435   0.00000  Uiso   1.00
O10    O     0.18311   0.68007   0.83044   0.00000  Uiso   1.00
O11    O     0.07412   0.65195   0.86712   0.00000  Uiso   1.00
C12    C     0.19009   0.58785   0.80377   0.00000  Uiso   1.00
O13    O     0.11033   0.63624   0.92358   0.00000  Uiso   1.00
C14    C     0.08611   0.56264   0.84714   0.00000  Uiso   1.00
O15    O     0.17365   0.54227   0.92438   0.00000  Uiso   1.00
O16    O     0.19816   0.60140   0.95085   0.00000  Uiso   1.00
C17    C     0.07978   0.70038   0.77810   0.00000  Uiso   1.00
C18    C     0.07794   0.64936   0.90511   0.00000  Uiso   1.00
C19    C     0.19402   0.67814   0.86594   0.00000  Uiso   1.00
Y20    Y     0.66553   0.83074   0.10259   0.00000  Uiso   1.00
Y21    Y     0.60788   0.90088   0.13348   0.00000  Uiso   1.00
O22    O     0.62124   0.79552   0.13119   0.00000  Uiso   1.00
O23    O     0.59701   0.83809   0.09332   0.00000  Uiso   1.00
C24    C     0.56951   0.96548   0.16996   0.00000  Uiso   1.00
O25    O     0.57342   0.89175   0.06989   0.00000  Uiso   1.00
O26    O     0.72016   0.79141   0.10643   0.00000  Uiso   1.00
O27    O     0.68550   0.78812   0.04916   0.00000  Uiso   1.00
O28    O     0.60141   0.84969   0.17325   0.00000  Uiso   1.00
O29    O     0.67546   0.89246   0.14484   0.00000  Uiso   1.00
O30    O     0.69551   0.83725   0.16748   0.00000  Uiso   1.00
O31    O     0.67232   0.87899   0.06184   0.00000  Uiso   1.00
C32    C     0.60469   0.81018   0.16268   0.00000  Uiso   1.00
O33    O     0.64217   0.93395   0.09247   0.00000  Uiso   1.00
C34    C     0.57532   0.85435   0.06185   0.00000  Uiso   1.00
O35    O     0.55142   0.93514   0.14641   0.00000  Uiso   1.00
O36    O     0.60720   0.96093   0.17681   0.00000  Uiso   1.00
C37    C     0.71694   0.77667   0.06930   0.00000  Uiso   1.00
C38    C     0.66218   0.91698   0.06457   0.00000  Uiso   1.00
C39    C     0.69123   0.87390   0.17770   0.00000  Uiso   1.00
Y40    Y     0.81975   0.11375   0.66829   0.00000  Uiso   1.00
Y41    Y     0.88089   0.13597   0.60811   0.00000  Uiso   1.00
O42    O     0.78284   0.15706   0.63357   0.00000  Uiso   1.00
O43    O     0.81825   0.10488   0.59897   0.00000  Uiso   1.00
C44    C     0.94033   0.16990   0.57442   0.00000  Uiso   1.00
O45    O     0.86554   0.07284   0.57087   0.00000  Uiso   1.00
O46    O     0.81511   0.09937   0.73075   0.00000  Uiso   1.00
O47    O     0.76404   0.08348   0.68693   0.00000  Uiso   1.00
O48    O     0.83262   0.18473   0.60416   0.00000  Uiso   1.00
O49    O     0.88069   0.14795   0.67626   0.00000  Uiso   1.00
O50    O     0.83186   0.17883   0.70232   0.00000  Uiso   1.00
O51    O     0.86083   0.05973   0.66251   0.00000  Uiso   1.00
C52    C     0.79624   0.18398   0.61344   0.00000  Uiso   1.00
O53    O     0.91394   0.08654   0.63846   0.00000  Uiso   1.00
C54    C     0.83014   0.07001   0.57531   0.00000  Uiso   1.00
O55    O     0.90894   0.15169   0.55367   0.00000  Uiso   1.00
O56    O     0.94033   0.17101   0.61213   0.00000  Uiso   1.00
C57    C     0.77962   0.08355   0.72348   0.00000  Uiso   1.00
C58    C     0.89718   0.05790   0.65389   0.00000  Uiso   1.00
C59    C     0.86620   0.18412   0.69549   0.00000  Uiso   1.00
Y60    Y     0.42308   0.42889   0.38785   0.00000  Uiso   1.00
Y61    Y     0.35098   0.37127   0.40359   0.00000  Uiso   1.00
O62    O     0.45717   0.38558   0.42436   0.00000  Uiso   1.00
O63    O     0.40827   0.35839   0.37439   0.00000  Uiso   1.00
C64    C     0.29100   0.33421   0.43387   0.00000  Uiso   1.00
O65    O     0.35066   0.33527   0.34122   0.00000  Uiso   1.00
O66    O     0.46212   0.48752   0.39634   0.00000  Uiso   1.00
O67    O     0.46405   0.44536   0.34296   0.00000  Uiso   1.00
O68    O     0.40430   0.36187   0.45176   0.00000  Uiso   1.00
O69    O     0.36566   0.43999   0.41627   0.00000  Uiso   1.00
O70    O     0.42165   0.46057   0.45277   0.00000  Uiso   1.00
O71    O     0.37298   0.43584   0.33783   0.00000  Uiso   1.00
C72    C     0.44264   0.36650   0.45054   0.00000  Uiso   1.00
O73    O     0.31788   0.40854   0.35831   0.00000  Uiso   1.00
C74    C     0.38683   0.33588   0.33964   0.00000  Uiso   1.00
O75    O     0.31242   0.31514   0.40931   0.00000  Uiso   1.00
O76    O     0.30123   0.37226   0.44344   0.00000  Uiso   1.00
C77    C     0.47558   0.48066   0.36268   0.00000  Uiso   1.00
C78    C     0.33469   0.42837   0.33397   0.00000  Uiso   1.00
C79    C     0.38570   0.45634   0.45374   0.00000  Uiso   1.00
C80    C     0.47776   0.78587  -0.01610   0.00000  Uiso   1.00
C81    C     0.48535   0.82817  -0.01845   0.00000  Uiso   1.00
C82    C     0.51967   0.84967   0.00388   0.00000  Uiso   1.00
C83    C     0.54720   0.82943   0.02913   0.00000  Uiso   1.00
C84    C     0.54151   0.78644   0.02895   0.00000  Uiso   1.00
C85    C     0.50716   0.76482   0.00643   0.00000  Uiso   1.00
C86    C     0.43780   0.76526  -0.03404   0.00000  Uiso   1.00
C87    C     0.41771   0.73852  -0.01281   0.00000  Uiso   1.00
C88    C     0.37852   0.72214   0.97203   0.00000  Uiso   1.00
C89    C     0.35843   0.73224   0.93533   0.00000  Uiso   1.00
C90    C     0.37876   0.75880   0.91413   0.00000  Uiso   1.00
C91    C     0.41791   0.77476   0.92903   0.00000  Uiso   1.00
C92    C     0.31657   0.71551   0.91871   0.00000  Uiso   1.00
C93    C     0.30575   0.70574   0.87639   0.00000  Uiso   1.00
C94    C     0.26605   0.69355   0.85986   0.00000  Uiso   1.00
C95    C     0.23600   0.68978   0.88510   0.00000  Uiso   1.00
C96    C     0.24677   0.69749   0.92751   0.00000  Uiso   1.00
C97    C     0.28673   0.71054   0.94423   0.00000  Uiso   1.00
H98    H     0.46338   0.84555   0.96474   0.00000  Uiso   1.00
H99    H     0.52292   0.88293   0.00388   0.00000  Uiso   1.00
H100   H     0.56201   0.77011   0.04845   0.00000  Uiso   1.00
H101   H     0.50274   0.73201   0.00799   0.00000  Uiso   1.00
H102   H     0.43185   0.73110   0.01611   0.00000  Uiso   1.00
H103   H     0.36407   0.70147  -0.01103   0.00000  Uiso   1.00
H104   H     0.36414   0.76800   0.88619   0.00000  Uiso   1.00
H105   H     0.43252   0.79488   0.91166   0.00000  Uiso   1.00
H106   H     0.32804   0.70770   0.85580   0.00000  Uiso   1.00
H107   H     0.25884   0.68711   0.82701   0.00000  Uiso   1.00
H108   H     0.22416   0.69450   0.94757   0.00000  Uiso   1.00
H109   H     0.29391   0.71783   0.97700   0.00000  Uiso   1.00
C110   C     0.44097   0.23578   0.26924   0.00000  Uiso   1.00
C111   C     0.40114   0.23217   0.27862   0.00000  Uiso   1.00
C112   C     0.38307   0.26602   0.29864   0.00000  Uiso   1.00
C113   C     0.40453   0.30429   0.31138   0.00000  Uiso   1.00
C114   C     0.44417   0.30860   0.30209   0.00000  Uiso   1.00
C115   C     0.46194   0.27488   0.28043   0.00000  Uiso   1.00
C116   C     0.46070   0.19805   0.25029   0.00000  Uiso   1.00
C117   C     0.50272   0.19324   0.25859   0.00000  Uiso   1.00
C118   C     0.52033   0.15615   0.24411   0.00000  Uiso   1.00
C119   C     0.49636   0.12194   0.22206   0.00000  Uiso   1.00
C120   C     0.45442   0.12728   0.21304   0.00000  Uiso   1.00
C121   C     0.43713   0.16488   0.22608   0.00000  Uiso   1.00
C122   C     0.51469   0.08087   0.20943   0.00000  Uiso   1.00
C123   C     0.55183   0.06994   0.22996   0.00000  Uiso   1.00
C124   C     0.56933   1.03220   0.21757   0.00000  Uiso   1.00
C125   C     0.54960   1.00360   0.18540   0.00000  Uiso   1.00
C126   C     0.51221   0.01353   0.16541   0.00000  Uiso   1.00
C127   C     0.49530   0.05185   0.17680   0.00000  Uiso   1.00
H128   H     0.38420   0.20266   0.27246   0.00000  Uiso   1.00
H129   H     0.35297   0.26121   0.30670   0.00000  Uiso   1.00
H130   H     0.46152   0.33765   0.31210   0.00000  Uiso   1.00
H131   H     0.49235   0.27934   0.27321   0.00000  Uiso   1.00
H132   H     0.52217   0.21751   0.27746   0.00000  Uiso   1.00
H133   H     0.55286   0.15459   0.25085   0.00000  Uiso   1.00
H134   H     0.43416   0.10225   0.19682   0.00000  Uiso   1.00
H135   H     0.40486   0.16733   0.21771   0.00000  Uiso   1.00
H136   H     0.56779   0.09028   0.25571   0.00000  Uiso   1.00
H137   H     0.59854   1.02547   0.23308   0.00000  Uiso   1.00
H138   H     0.49687   0.99237   0.13975   0.00000  Uiso   1.00
H139   H     0.46750   0.05873   0.15900   0.00000  Uiso   1.00
C140   C     0.69888   0.25677   0.57239   0.00000  Uiso   1.00
C141   C     0.71912   0.23130   0.54414   0.00000  Uiso   1.00
C142   C     0.75339   0.21024   0.55731   0.00000  Uiso   1.00
C143   C     0.76742   0.21359   0.59892   0.00000  Uiso   1.00
C144   C     0.74870   0.24023   0.62702   0.00000  Uiso   1.00
C145   C     0.71515   0.26221   0.61384   0.00000  Uiso   1.00
C146   C     0.65961   0.27513   0.55907   0.00000  Uiso   1.00
C147   C     0.62886   0.27941   0.58460   0.00000  Uiso   1.00
C148   C     0.59109   0.29416   0.57110   0.00000  Uiso   1.00
C149   C     0.58307   0.30389   0.53157   0.00000  Uiso   1.00
C150   C     0.61357   0.30028   0.50618   0.00000  Uiso   1.00
C151   C     0.65162   0.28654   0.51993   0.00000  Uiso   1.00
C152   C     0.54283   0.31724   0.51608   0.00000  Uiso   1.00
C153   C     0.51907   0.29203   0.48375   0.00000  Uiso   1.00
C154   C     0.48356   0.30688   0.46492   0.00000  Uiso   1.00
C155   C     0.47179   0.34728   0.47785   0.00000  Uiso   1.00
C156   C     0.49459   0.37194   0.51125   0.00000  Uiso   1.00
C157   C     0.52974   0.35672   0.53069   0.00000  Uiso   1.00
H158   H     0.70730   0.22564   0.51209   0.00000  Uiso   1.00
H159   H     0.76719   0.18911   0.53533   0.00000  Uiso   1.00
H160   H     0.75927   0.24285   0.65931   0.00000  Uiso   1.00
H161   H     0.70125   0.28241   0.63636   0.00000  Uiso   1.00
H162   H     0.63342   0.27021   0.61461   0.00000  Uiso   1.00
H163   H     0.56777   0.29690   0.59105   0.00000  Uiso   1.00
H164   H     0.60787   0.30822   0.47568   0.00000  Uiso   1.00
H165   H     0.67467   0.28472   0.49976   0.00000  Uiso   1.00
H166   H     0.52901   0.26162   0.47197   0.00000  Uiso   1.00
H167   H     0.46681   0.28803   0.43845   0.00000  Uiso   1.00
H168   H     0.48650   0.40371   0.52067   0.00000  Uiso   1.00
H169   H     0.54808   0.37665   0.55533   0.00000  Uiso   1.00
C170   C     0.72644   0.03522   0.81805   0.00000  Uiso   1.00
C171   C     0.70129   0.04401   0.78353   0.00000  Uiso   1.00
C172   C     0.71823   0.05915   0.75191   0.00000  Uiso   1.00
C173   C     0.76040   0.06642   0.75513   0.00000  Uiso   1.00
C174   C     0.78513   0.05782   0.78995   0.00000  Uiso   1.00
C175   C     0.76840   0.04213   0.82090   0.00000  Uiso   1.00
C176   C     0.71013   0.01828   0.85144   0.00000  Uiso   1.00
C177   C     0.71810   0.97730   0.85746   0.00000  Uiso   1.00
C178   C     0.70921   0.96286   0.89277   0.00000  Uiso   1.00
C179   C     0.69292   0.98943   0.92326   0.00000  Uiso   1.00
C180   C     0.68351   0.03011   0.91629   0.00000  Uiso   1.00
C181   C     0.69203   0.04439   0.88061   0.00000  Uiso   1.00
C182   C     0.68696   0.97478   0.96239   0.00000  Uiso   1.00
C183   C     0.65308   0.98606   0.98221   0.00000  Uiso   1.00
C184   C     0.64621   0.96937   0.01722   0.00000  Uiso   1.00
C185   C     0.67296   0.94089   0.03284   0.00000  Uiso   1.00
C186   C     0.70777   0.93125   0.01427   0.00000  Uiso   1.00
C187   C     0.71489   0.94826   0.97974   0.00000  Uiso   1.00
H188   H     0.66877   0.03878   0.78096   0.00000  Uiso   1.00
H189   H     0.69860   0.06563   0.72536   0.00000  Uiso   1.00
H190   H     0.81774   0.06292   0.79317   0.00000  Uiso   1.00
H191   H     0.78818   1.03550   0.84732   0.00000  Uiso   1.00
H192   H     0.73232   0.95687   0.83528   0.00000  Uiso   1.00
H193   H     0.71570   0.93098   0.89642   0.00000  Uiso   1.00
H194   H     0.67113   0.05146   0.93909   0.00000  Uiso   1.00
H195   H     0.68631   0.07636   0.87664   0.00000  Uiso   1.00
H196   H     0.63096   1.00632   0.96968   0.00000  Uiso   1.00
H197   H     0.61884   0.97688   0.03066   0.00000  Uiso   1.00
H198   H     0.72907   0.90967   0.02595   0.00000  Uiso   1.00
H199   H     0.74204   0.94005   0.96622   0.00000  Uiso   1.00
C200   C     0.76541  -0.00533   0.47374   0.00000  Uiso   1.00
C201   C     0.79807  -0.02179   0.49670   0.00000  Uiso   1.00
C202   C     0.81664   0.00062   0.53340   0.00000  Uiso   1.00
C203   C     0.80230   0.03938   0.54826   0.00000  Uiso   1.00
C204   C     0.76644   0.05313   0.52854   0.00000  Uiso   1.00
C205   C     0.74836   0.03124   0.49127   0.00000  Uiso   1.00
C206   C     0.75264  -0.02327   0.43022   0.00000  Uiso   1.00
C207   C     0.71251  -0.02088   0.41148   0.00000  Uiso   1.00
C208   C     0.70180  -0.03547   0.36987   0.00000  Uiso   1.00
C209   C     0.73087   0.94677   0.34642   0.00000  Uiso   1.00
C210   C     0.77075   0.94425   0.36498   0.00000  Uiso   1.00
C211   C     0.78162   0.95935   0.40616   0.00000  Uiso   1.00
C212   C     0.71991   0.92895   0.30308   0.00000  Uiso   1.00
C213   C     0.72970   0.88788   0.28994   0.00000  Uiso   1.00
C214   C     0.72077   0.87060   0.24911   0.00000  Uiso   1.00
C215   C     0.70226   0.89415   0.22027   0.00000  Uiso   1.00
C216   C     0.69308   0.93557   0.23315   0.00000  Uiso   1.00
C217   C     0.70136   0.95275   0.27446   0.00000  Uiso   1.00
H218   H     0.81106   0.94931   0.48511   0.00000  Uiso   1.00
H219   H     0.84409  -0.01072   0.54850   0.00000  Uiso   1.00
H220   H     0.75501   0.08315   0.53942   0.00000  Uiso   1.00
H221   H     0.72328   0.04501   0.47477   0.00000  Uiso   1.00
H222   H     0.68928  -0.00813   0.42899   0.00000  Uiso   1.00
H223   H     0.67068  -0.03371   0.35623   0.00000  Uiso   1.00
H224   H     0.79369   0.93090   0.34733   0.00000  Uiso   1.00
H225   H     0.81308   0.95805   0.41880   0.00000  Uiso   1.00
H226   H     0.74407   0.86903   0.31147   0.00000  Uiso   1.00
H227   H     0.72833   0.83858   0.24014   0.00000  Uiso   1.00
H228   H     0.67954   0.95452   0.21140   0.00000  Uiso   1.00
H229   H     0.69408   0.98473   0.28396   0.00000  Uiso   1.00
C230   C     0.33245   0.49131   0.56283   0.00000  Uiso   1.00
C231   C     0.34499   0.52187   0.54079   0.00000  Uiso   1.00
C232   C     0.36219   0.51045   0.50503   0.00000  Uiso   1.00
C233   C     0.36649   0.46835   0.49048   0.00000  Uiso   1.00
C234   C     0.35409   0.43778   0.51233   0.00000  Uiso   1.00
C235   C     0.33731   0.44915   0.54836   0.00000  Uiso   1.00
C236   C     0.31381   0.50360   0.60041   0.00000  Uiso   1.00
C237   C     0.32601   0.48634   0.63602   0.00000  Uiso   1.00
C238   C     0.30890   0.49923   0.67168   0.00000  Uiso   1.00
C239   C     0.27928   0.52950   0.67225   0.00000  Uiso   1.00
C240   C     0.26649   0.54583   0.63623   0.00000  Uiso   1.00
C241   C     0.28364   0.53312   0.60082   0.00000  Uiso   1.00
C242   C     0.26142   0.54446   0.70992   0.00000  Uiso   1.00
C243   C     0.25405   0.58694   0.71953   0.00000  Uiso   1.00
C244   C     0.23273   0.60089   0.75174   0.00000  Uiso   1.00
C245   C     0.21871   0.57288   0.77542   0.00000  Uiso   1.00
C246   C     0.22803   0.53074   0.76772   0.00000  Uiso   1.00
C247   C     0.24930   0.51659   0.73506   0.00000  Uiso   1.00
H248   H     0.34184   0.55460   0.55154   0.00000  Uiso   1.00
H249   H     0.37199   0.53445   0.48868   0.00000  Uiso   1.00
H250   H     0.35790   0.40518   0.50186   0.00000  Uiso   1.00
H251   H     0.32762   0.42503   0.56462   0.00000  Uiso   1.00
H252   H     0.34939   0.46361   0.63650   0.00000  Uiso   1.00
H253   H     0.31941   0.48623   0.69900   0.00000  Uiso   1.00
H254   H     0.24290   0.56831   0.63532   0.00000  Uiso   1.00
H255   H     0.27306   0.54610   0.57350   0.00000  Uiso   1.00
H256   H     0.26389   0.60932   0.70144   0.00000  Uiso   1.00
H257   H     0.22604   0.63357   0.75749   0.00000  Uiso   1.00
H258   H     0.21700   0.50854   0.78537   0.00000  Uiso   1.00
H259   H     0.25448   0.48365   0.72820   0.00000  Uiso   1.00
C260   C     0.23260   0.51886   0.06746   0.00000  Uiso   1.00
C261   C     0.20903   0.49303   0.03524   0.00000  Uiso   1.00
C262   C     0.19869   0.50660   0.99761   0.00000  Uiso   1.00
C263   C     0.21142   0.54642   0.99153   0.00000  Uiso   1.00
C264   C     0.23634   0.57158   1.02301   0.00000  Uiso   1.00
C265   C     0.24691   0.55794   0.06054   0.00000  Uiso   1.00
C266   C     0.24146   0.50559   0.10832   0.00000  Uiso   1.00
C267   C     0.24219   0.53469   0.14392   0.00000  Uiso   1.00
C268   C     0.25169   0.52261   0.18230   0.00000  Uiso   1.00
C269   C     0.26047   0.48109   0.18607   0.00000  Uiso   1.00
C270   C     0.25862   0.45172   0.15063   0.00000  Uiso   1.00
C271   C     0.24929   0.46383   0.11218   0.00000  Uiso   1.00
C272   C     0.27506   0.46929   0.22650   0.00000  Uiso   1.00
C273   C     0.26226   0.43151   0.23775   0.00000  Uiso   1.00
C274   C     0.27950   0.41908   0.27441   0.00000  Uiso   1.00
C275   C     0.31024   0.44398   0.29984   0.00000  Uiso   1.00
C276   C     0.32199   0.48219   0.28911   0.00000  Uiso   1.00
C277   C     0.30451   0.49479   0.25302   0.00000  Uiso   1.00
H278   H     0.19728   0.46291   0.03953   0.00000  Uiso   1.00
H279   H     0.17934   0.48660   0.97385   0.00000  Uiso   1.00
H280   H     0.24689   0.60224   1.01890   0.00000  Uiso   1.00
H281   H     0.26596   0.57824   0.08429   0.00000  Uiso   1.00
H282   H     0.23533   0.56688   0.14215   0.00000  Uiso   1.00
H283   H     0.25250   0.54586   0.20913   0.00000  Uiso   1.00
H284   H     0.26594   0.41967   0.15258   0.00000  Uiso   1.00
H285   H     0.24936   0.44066   0.08546   0.00000  Uiso   1.00
H286   H     0.23972   0.41118   0.21770   0.00000  Uiso   1.00
H287   H     0.27058   0.38906   0.28165   0.00000  Uiso   1.00
H288   H     0.34598   0.50164   0.30803   0.00000  Uiso   1.00
H289   H     0.31564   0.52356   0.24483   0.00000  Uiso   1.00
C290   C     0.18852   0.27975   0.47473   0.00000  Uiso   1.00
C291   C     0.20771   0.31663   0.49655   0.00000  Uiso   1.00
C292   C     0.24146   0.33409   0.48354   0.00000  Uiso   1.00
C293   C     0.25693   0.31460   0.44886   0.00000  Uiso   1.00
C294   C     0.23844   0.27723   0.42755   0.00000  Uiso   1.00
C295   C     0.20429   0.26006   0.44021   0.00000  Uiso   1.00
C296   C     0.15187   0.26233   0.48785   0.00000  Uiso   1.00
C297   C     0.11776   0.24871   0.45944   0.00000  Uiso   1.00
C298   C     0.08253   0.23405   0.47232   0.00000  Uiso   1.00
C299   C     0.08089   0.23225   0.51385   0.00000  Uiso   1.00
C300   C     0.11557   0.24513   0.54199   0.00000  Uiso   1.00
C301   C     0.15044   0.26032   0.52918   0.00000  Uiso   1.00
C302   C     0.04329   0.21747   0.52810   0.00000  Uiso   1.00
C303   C     0.03366   0.23387   0.56684   0.00000  Uiso   1.00
C304   C     0.99988   0.21859   0.58145   0.00000  Uiso   1.00
C305   C     0.97408   0.18756   0.55722   0.00000  Uiso   1.00
C306   C     0.98241   0.17213   0.51793   0.00000  Uiso   1.00
C307   C     0.01705   0.18650   0.50369   0.00000  Uiso   1.00
H308   H     0.19598   0.33249   0.52314   0.00000  Uiso   1.00
H309   H     0.25534   0.36293   0.50047   0.00000  Uiso   1.00
H310   H     0.24980   0.26192   0.40051   0.00000  Uiso   1.00
H311   H     0.19024   0.23140   0.42308   0.00000  Uiso   1.00
H312   H     0.11797   0.25050   0.42741   0.00000  Uiso   1.00
H313   H     0.05640   0.22502   0.44976   0.00000  Uiso   1.00
H314   H     0.11608   0.24326   0.57405   0.00000  Uiso   1.00
H315   H     0.17648   0.27031   0.55163   0.00000  Uiso   1.00
H316   H     0.05226   0.25851   0.58617   0.00000  Uiso   1.00
H317   H     0.99393   0.23102   0.61187   0.00000  Uiso   1.00
H318   H     0.96307   0.14782   0.49891   0.00000  Uiso   1.00
H319   H     0.02378   0.17247   0.47406   0.00000  Uiso   1.00
C320   C     0.95407   0.94367   0.67210   0.00000  Uiso   1.00
C321   C     0.92858   0.96232   0.69936   0.00000  Uiso   1.00
C322   C     0.91117   0.00007   0.69394   0.00000  Uiso   1.00
C323   C     0.91953   0.02061   0.66172   0.00000  Uiso   1.00
C324   C     0.94662   1.00332   0.63558   0.00000  Uiso   1.00
C325   C     0.96363   0.96496   0.64061   0.00000  Uiso   1.00
C326   C     0.96972   0.90189   0.67670   0.00000  Uiso   1.00
C327   C     1.01007   0.89250   0.67183   0.00000  Uiso   1.00
C328   C     0.02569   0.85490   0.68151   0.00000  Uiso   1.00
C329   C     0.00119   0.82642   0.69620   0.00000  Uiso   1.00
C330   C    -0.03966   0.83457   0.69855   0.00000  Uiso   1.00
C331   C     0.94462   0.87171   0.68843   0.00000  Uiso   1.00
C332   C     0.01937   0.79202   0.71543   0.00000  Uiso   1.00
C333   C     0.02107   0.79414   0.75767   0.00000  Uiso   1.00
C334   C     0.03984   0.76344   0.77742   0.00000  Uiso   1.00
C335   C     0.05682   0.72966   0.75528   0.00000  Uiso   1.00
C336   C     0.05392   0.72650   0.71270   0.00000  Uiso   1.00
C337   C     0.03572   0.75800   0.69285   0.00000  Uiso   1.00
H338   H     0.92181   0.94751   0.72483   0.00000  Uiso   1.00
H339   H     0.89074   0.01307   0.71480   0.00000  Uiso   1.00
H340   H     0.95319   1.01855   0.61030   0.00000  Uiso   1.00
H341   H     0.98313   0.95134   0.61913   0.00000  Uiso   1.00
H342   H     1.03010   0.91509   0.66279   0.00000  Uiso   1.00
H343   H     0.05746   0.84919   0.67997   0.00000  Uiso   1.00
H344   H    -0.05895   0.81291   0.70990   0.00000  Uiso   1.00
H345   H     0.91306   0.87745   0.69114   0.00000  Uiso   1.00
H346   H     0.00880   0.82030   0.77553   0.00000  Uiso   1.00
H347   H     0.04150   0.76634   0.81025   0.00000  Uiso   1.00
H348   H     0.06693   0.70066   0.69514   0.00000  Uiso   1.00
H349   H     0.03457   0.75603   0.66014   0.00000  Uiso   1.00
C350   C    -0.00125   0.46996   0.78716   0.00000  Uiso   1.00
C351   C     0.02706   0.48596   0.76505   0.00000  Uiso   1.00
C352   C     0.05326   0.51964   0.78322   0.00000  Uiso   1.00
C353   C     0.05137   0.53760   0.82364   0.00000  Uiso   1.00
C354   C     0.02008   0.52476   0.84393   0.00000  Uiso   1.00
C355   C    -0.00609   0.49128   0.82581   0.00000  Uiso   1.00
C356   C     0.97860   0.42831   0.77281   0.00000  Uiso   1.00
C357   C     0.97779   0.39949   0.80023   0.00000  Uiso   1.00
C358   C     0.96112   0.35937   0.78719   0.00000  Uiso   1.00
C359   C     0.94450   0.34693   0.74639   0.00000  Uiso   1.00
C360   C     0.94553   0.37564   0.71873   0.00000  Uiso   1.00
C361   C     0.96256   0.41592   0.73181   0.00000  Uiso   1.00
C362   C     0.92565   0.30438   0.73333   0.00000  Uiso   1.00
C363   C     0.92957   0.28184   0.69491   0.00000  Uiso   1.00
C364   C     0.91108   0.24214   0.68287   0.00000  Uiso   1.00
C365   C     0.88890   0.22403   0.70907   0.00000  Uiso   1.00
C366   C     0.88485   0.24640   0.74732   0.00000  Uiso   1.00
C367   C     0.90309   0.28605   0.75939   0.00000  Uiso   1.00
H368   H     0.03126   0.47034   0.73511   0.00000  Uiso   1.00
H369   H     0.07724   0.52905   0.76704   0.00000  Uiso   1.00
H370   H     0.01769   0.53869   0.87494   0.00000  Uiso   1.00
H371   H    -0.02845   0.48037   0.84307   0.00000  Uiso   1.00
H372   H    -0.00888   0.40762   0.83172   0.00000  Uiso   1.00
H373   H     0.96188   0.33780   0.80906   0.00000  Uiso   1.00
H374   H     0.93272   0.36720   0.68713   0.00000  Uiso   1.00
H375   H     0.96295   0.43746   0.71000   0.00000  Uiso   1.00
H376   H     0.94673   0.29490   0.67407   0.00000  Uiso   1.00
H377   H     0.91242   0.22663   0.65245   0.00000  Uiso   1.00
H378   H     0.86713   0.23332   0.76776   0.00000  Uiso   1.00
H379   H     0.89871   0.30272   0.78886   0.00000  Uiso   1.00
C380   C     0.81797   0.71592   0.02263   0.00000  Uiso   1.00
C381   C     0.81209   0.71651   0.06352   0.00000  Uiso   1.00
C382   C     0.77794   0.73432   0.07803   0.00000  Uiso   1.00
C383   C     0.74860   0.75145   0.05192   0.00000  Uiso   1.00
C384   C     0.75305   0.74885   1.01056   0.00000  Uiso   1.00
C385   C     0.78743   0.73119   0.99601   0.00000  Uiso   1.00
C386   C     0.85696   0.70228   1.00854   0.00000  Uiso   1.00
C387   C     0.85765   0.68092   0.96905   0.00000  Uiso   1.00
C388   C     0.89446   0.67133   0.95468   0.00000  Uiso   1.00
C389   C     0.93156   0.68261   0.97945   0.00000  Uiso   1.00
C390   C     0.93099   0.70261   0.01946   0.00000  Uiso   1.00
C391   C     0.89409   0.71244   0.03383   0.00000  Uiso   1.00
C392   C     0.97037   0.67567   0.96234   0.00000  Uiso   1.00
C393   C     0.00395   0.65917   0.98389   0.00000  Uiso   1.00
C394   C     0.03967   0.65144   0.96611   0.00000  Uiso   1.00
C395   C     0.04244   0.66054   0.92670   0.00000  Uiso   1.00
C396   C     0.00910   0.67815   0.90596   0.00000  Uiso   1.00
C397   C     0.97366   0.68544   0.92344   0.00000  Uiso   1.00
H398   H     0.83440   0.70414   0.08463   0.00000  Uiso   1.00
H399   H     0.77516   0.73602   0.11012   0.00000  Uiso   1.00
H400   H     0.73119   0.76258   0.99002   0.00000  Uiso   1.00
H401   H     0.79104   0.73151   0.96438   0.00000  Uiso   1.00
H402   H     0.82970   0.67190   0.94908   0.00000  Uiso   1.00
H403   H     0.89395   0.65543   0.92385   0.00000  Uiso   1.00
H404   H     0.95907   0.71220   0.03906   0.00000  Uiso   1.00
H405   H     0.89475   0.72946   0.06423   0.00000  Uiso   1.00
H406   H     0.00211   0.65110   0.01389   0.00000  Uiso   1.00
H407   H     0.06457   0.63737   0.98265   0.00000  Uiso   1.00
H408   H     0.00997   0.68570   0.87561   0.00000  Uiso   1.00
H409   H     0.94861   0.69875   0.90635   0.00000  Uiso   1.00
C410   C     0.56471   0.71792   0.23021   0.00000  Uiso   1.00
C411   C     0.56894   0.70797   0.18879   0.00000  Uiso   1.00
C412   C     0.58062   0.73843   0.16698   0.00000  Uiso   1.00
C413   C     0.58864   0.77976   0.18597   0.00000  Uiso   1.00
C414   C     0.58351   0.79029   0.22717   0.00000  Uiso   1.00
C415   C     0.57190   0.75947   0.24924   0.00000  Uiso   1.00
C416   C     0.55340   0.68439   0.25290   0.00000  Uiso   1.00
C417   C     0.57263   0.68190   0.29234   0.00000  Uiso   1.00
C418   C     0.56428   0.64794   0.31180   0.00000  Uiso   1.00
C419   C     0.53677   0.61570   0.29203   0.00000  Uiso   1.00
C420   C     0.51663   0.61904   0.25317   0.00000  Uiso   1.00
C421   C     0.52472   0.65299   0.23396   0.00000  Uiso   1.00
C422   C     0.52773   0.57926   0.31201   0.00000  Uiso   1.00
C423   C     0.52092   0.53928   0.28903   0.00000  Uiso   1.00
C424   C     0.50656   0.50616   0.30633   0.00000  Uiso   1.00
C425   C     0.49891   0.51237   0.34694   0.00000  Uiso   1.00
C426   C     0.50853   0.55145   0.37076   0.00000  Uiso   1.00
C427   C     0.52287   0.58458   0.35349   0.00000  Uiso   1.00
H428   H     0.56418   0.67626   0.17332   0.00000  Uiso   1.00
H429   H     0.58385   0.72939   0.13513   0.00000  Uiso   1.00
H430   H     0.58947   0.82195   0.24247   0.00000  Uiso   1.00
H431   H     0.56856   0.76807   0.28109   0.00000  Uiso   1.00
H432   H     0.59508   0.70547   0.30761   0.00000  Uiso   1.00
H433   H     0.58002   0.64644   0.34190   0.00000  Uiso   1.00
H434   H     0.49427   0.59551   0.23764   0.00000  Uiso   1.00
H435   H     0.50862   0.65458   0.20402   0.00000  Uiso   1.00
H436   H     0.52543   0.53393   0.25725   0.00000  Uiso   1.00
H437   H     0.49944   0.47633   0.28737   0.00000  Uiso   1.00
H438   H     0.50289   0.55708   0.40221   0.00000  Uiso   1.00
H439   H     0.52793   0.61487   0.37207   0.00000  Uiso   1.00
loop_
_geom_bond_atom_site_label_1
_geom_bond_atom_site_label_2
_geom_bond_distance
_geom_bond_site_symmetry_2
_ccdc_geom_bond_type
Y0     O2      2.234   .     S
Y0     O3      2.284   .     S
Y0     O6      2.229   .     S
Y0     O7      2.277   .     S
Y0     O9      2.273   .     S
Y0     O10     2.251   .     S
Y0     O11     2.239   .     S
Y1     O3      2.268   .     S
Y1     O5      2.257   .     S
Y1     O8      2.294   .     S
Y1     O9      2.262   .     S
Y1     O13     2.276   .     S
Y1     O15     2.258   .     S
Y1     O16     2.257   .     S
O2     C12     1.284   .     A
O3     C14     1.377   .     S
C4     O15     1.261   .     A
C4     O16     1.261   .     A
C4     C263    1.475   .     S
O5     C14     1.210   .     D
O6     C17     1.257   .     A
O7     C17     1.266   .     A
O8     C12     1.291   .     A
O9     C19     1.381   .     S
O10    C19     1.208   .     D
O11    C18     1.277   .     A
C12    C245    1.470   .     S
O13    C18     1.284   .     A
C14    C353    1.470   .     S
C17    C335    1.470   .     S
C18    C395    1.487   .     S
C19    C95     1.479   .     S
Y20    O22     2.240   .     S
Y20    O23     2.284   .     S
Y20    O26     2.243   .     S
Y20    O27     2.275   .     S
Y20    O29     2.271   .     S
Y20    O30     2.250   .     S
Y20    O31     2.248   .     S
Y21    O23     2.269   .     S
Y21    O25     2.261   .     S
Y21    O28     2.299   .     S
Y21    O29     2.261   .     S
Y21    O33     2.264   .     S
Y21    O35     2.260   .     S
Y21    O36     2.258   .     S
O22    C32     1.286   .     A
O23    C34     1.375   .     S
C24    O35     1.259   .     A
C24    O36     1.261   .     A
C24    C125    1.474   .     S
O25    C34     1.210   .     D
O26    C37     1.256   .     A
O27    C37     1.263   .     A
O28    C32     1.291   .     A
O29    C39     1.380   .     S
O30    C39     1.206   .     D
O31    C38     1.279   .     A
C32    C413    1.476   .     S
O33    C38     1.282   .     A
C34    C83     1.477   .     S
C37    C383    1.473   .     S
C38    C185    1.478   .     S
C39    C215    1.477   .     S
Y40    O42     2.239   .     S
Y40    O43     2.290   .     S
Y40    O46     2.231   .     S
Y40    O47     2.280   .     S
Y40    O49     2.260   .     S
Y40    O50     2.253   .     S
Y40    O51     2.246   .     S
Y41    O43     2.264   .     S
Y41    O45     2.253   .     S
Y41    O48     2.282   .     S
Y41    O49     2.259   .     S
Y41    O53     2.252   .     S
Y41    O55     2.268   .     S
Y41    O56     2.243   .     S
O42    C52     1.285   .     A
O43    C54     1.380   .     S
C44    O55     1.263   .     A
C44    O56     1.258   .     A
C44    C305    1.470   .     S
O45    C54     1.210   .     D
O46    C57     1.259   .     A
O47    C57     1.266   .     A
O48    C52     1.289   .     A
O49    C59     1.381   .     S
O50    C59     1.208   .     D
O51    C58     1.280   .     A
C52    C143    1.460   .     S
O53    C58     1.280   .     A
C54    C203    1.468   .     S
C57    C173    1.474   .     S
C58    C323    1.471   .     S
C59    C365    1.470   .     S
Y60    O62     2.228   .     S
Y60    O63     2.300   .     S
Y60    O66     2.247   .     S
Y60    O67     2.266   .     S
Y60    O69     2.254   .     S
Y60    O70     2.272   .     S
Y60    O71     2.246   .     S
Y61    O63     2.270   .     S
Y61    O65     2.239   .     S
Y61    O68     2.296   .     S
Y61    O69     2.243   .     S
Y61    O73     2.265   .     S
Y61    O75     2.255   .     S
Y61    O76     2.254   .     S
O62    C72     1.281   .     A
O63    C74     1.385   .     S
C64    O75     1.260   .     A
C64    O76     1.260   .     A
C64    C293    1.468   .     S
O65    C74     1.212   .     D
O66    C77     1.257   .     A
O67    C77     1.263   .     A
O68    C72     1.289   .     A
O69    C79     1.371   .     S
O70    C79     1.207   .     D
O71    C78     1.279   .     A
C72    C155    1.459   .     S
O73    C78     1.283   .     A
C74    C113    1.476   .     S
C77    C425    1.474   .     S
C78    C275    1.473   .     S
C79    C233    1.465   .     S
C80    C81     1.407   .     A
C80    C85     1.407   .     A
C80    C86     1.491   .     S
C81    C82     1.397   .     A
C81    H98     1.083   1_554 S
C82    C83     1.404   .     A
C82    H99     1.083   .     S
C83    C84     1.405   .     A
C84    C85     1.401   .     A
C84    H100    1.083   .     S
C85    H101    1.083   .     S
C86    C87     1.409   .     A
C86    C91     1.404   1_554 A
C87    H102    1.083   .     S
C87    C88     1.403   1_554 A
C88    C89     1.407   .     A
C88    C87     1.403   1_556 A
C88    H103    1.083   1_556 S
C89    C90     1.409   .     A
C89    C92     1.494   .     S
C90    C91     1.396   .     A
C90    H104    1.082   .     S
C91    H105    1.083   .     S
C91    C86     1.404   1_556 A
C92    C93     1.404   .     A
C92    C97     1.412   .     A
C93    C94     1.392   .     A
C93    H106    1.082   .     S
C94    C95     1.404   .     A
C94    H107    1.083   .     S
C95    C96     1.403   .     A
C96    C97     1.407   .     A
C96    H108    1.083   .     S
C97    H109    1.082   .     S
H98    C81     1.083   1_556 S
H103   C88     1.083   1_554 S
C110   C111    1.408   .     A
C110   C115    1.415   .     A
C110   C116    1.499   .     S
C111   C112    1.391   .     A
C111   H128    1.082   .     S
C112   C113    1.404   .     A
C112   H129    1.085   .     S
C113   C114    1.403   .     A
C114   C115    1.407   .     A
C114   H130    1.084   .     S
C115   H131    1.082   .     S
C116   C117    1.407   .     A
C116   C121    1.409   .     A
C117   C118    1.400   .     A
C117   H132    1.082   .     S
C118   C119    1.412   .     A
C118   H133    1.081   .     S
C119   C120    1.410   .     A
C119   C122    1.504   .     S
C120   C121    1.396   .     A
C120   H134    1.080   .     S
C121   H135    1.082   .     S
C122   C123    1.413   .     A
C122   C127    1.412   .     A
C123   H136    1.080   .     S
C123   C124    1.398   1_545 A
C124   C125    1.400   .     A
C124   H137    1.083   .     S
C124   C123    1.398   1_565 A
C125   C126    1.402   1_565 A
C126   C127    1.398   .     A
C126   C125    1.402   1_545 A
C126   H138    1.083   1_545 S
C127   H139    1.080   .     S
H138   C126    1.083   1_565 S
C140   C141    1.411   .     A
C140   C145    1.408   .     A
C140   C146    1.490   .     S
C141   C142    1.397   .     A
C141   H158    1.082   .     S
C142   C143    1.399   .     A
C142   H159    1.084   .     S
C143   C144    1.398   .     A
C144   C145    1.395   .     A
C144   H160    1.083   .     S
C145   H161    1.082   .     S
C146   C147    1.412   .     A
C146   C151    1.407   .     A
C147   C148    1.398   .     A
C147   H162    1.082   .     S
C148   C149    1.399   .     A
C148   H163    1.084   .     S
C149   C150    1.401   .     A
C149   C152    1.470   .     S
C150   C151    1.395   .     A
C150   H164    1.083   .     S
C151   H165    1.082   .     S
C152   C153    1.402   .     A
C152   C157    1.402   .     A
C153   C154    1.395   .     A
C153   H166    1.083   .     S
C154   C155    1.400   .     A
C154   H167    1.083   .     S
C155   C156    1.402   .     A
C156   C157    1.399   .     A
C156   H168    1.084   .     S
C157   H169    1.083   .     S
C170   C171    1.405   .     A
C170   C175    1.399   .     A
C170   C176    1.473   .     S
C171   C172    1.405   .     A
C171   H188    1.083   .     S
C172   C173    1.407   .     A
C172   H189    1.082   .     S
C173   C174    1.404   .     A
C174   C175    1.391   .     A
C174   H190    1.084   .     S
C175   H191    1.083   1_545 S
C176   C181    1.402   .     A
C176   C177    1.400   1_545 A
C177   C178    1.396   .     A
C177   H192    1.084   .     S
C177   C176    1.400   1_565 A
C178   C179    1.409   .     A
C178   H193    1.083   .     S
C179   C182    1.492   .     S
C179   C180    1.409   1_565 A
C180   C181    1.402   .     A
C180   H194    1.082   .     S
C180   C179    1.409   1_545 A
C181   H195    1.083   .     S
C182   C183    1.408   .     A
C182   C187    1.407   .     A
C183   H196    1.082   .     S
C183   C184    1.403   1_556 A
C184   C185    1.405   .     A
C184   H197    1.083   .     S
C184   C183    1.403   1_554 A
C185   C186    1.403   .     A
C186   H198    1.084   .     S
C186   C187    1.396   1_554 A
C187   H199    1.082   .     S
C187   C186    1.396   1_556 A
H191   C175    1.083   1_565 S
C200   C201    1.409   .     A
C200   C205    1.409   .     A
C200   C206    1.493   .     S
C201   C202    1.396   .     A
C201   H218    1.082   1_545 S
C202   C203    1.401   .     A
C202   H219    1.084   .     S
C203   C204    1.401   .     A
C204   C205    1.399   .     A
C204   H220    1.084   .     S
C205   H221    1.082   .     S
C206   C207    1.410   .     A
C206   C211    1.409   1_545 A
C207   C208    1.402   .     A
C207   H222    1.082   .     S
C208   H223    1.083   .     S
C208   C209    1.404   1_545 A
C209   C210    1.401   .     A
C209   C212    1.478   .     S
C209   C208    1.404   1_565 A
C210   C211    1.393   .     A
C210   H224    1.083   .     S
C211   H225    1.082   .     S
C211   C206    1.409   1_565 A
C212   C213    1.401   .     A
C212   C217    1.406   .     A
C213   C214    1.392   .     A
C213   H226    1.083   .     S
C214   C215    1.406   .     A
C214   H227    1.083   .     S
C215   C216    1.403   .     A
C216   C217    1.404   .     A
C216   H228    1.081   .     S
C217   H229    1.083   .     S
H218   C201    1.082   1_565 S
C230   C231    1.407   .     A
C230   C235    1.404   .     A
C230   C236    1.480   .     S
C231   C232    1.398   .     A
C231   H248    1.083   .     S
C232   C233    1.400   .     A
C232   H249    1.083   .     S
C233   C234    1.401   .     A
C234   C235    1.398   .     A
C234   H250    1.081   .     S
C235   H251    1.083   .     S
C236   C237    1.406   .     A
C236   C241    1.401   .     A
C237   C238    1.401   .     A
C237   H252    1.083   .     S
C238   C239    1.405   .     A
C238   H253    1.083   .     S
C239   C240    1.407   .     A
C239   C242    1.485   .     S
C240   C241    1.394   .     A
C240   H254    1.083   .     S
C241   H255    1.083   .     S
C242   C243    1.404   .     A
C242   C247    1.409   .     A
C243   C244    1.392   .     A
C243   H256    1.083   .     S
C244   C245    1.401   .     A
C244   H257    1.084   .     S
C245   C246    1.403   .     A
C246   C247    1.405   .     A
C246   H258    1.083   .     S
C247   H259    1.083   .     S
C260   C261    1.406   .     A
C260   C265    1.408   .     A
C260   C266    1.489   .     S
C261   H278    1.082   .     S
C261   C262    1.398   1_554 A
C262   C263    1.404   .     A
C262   H279    1.083   .     S
C262   C261    1.398   1_556 A
C263   C264    1.402   .     A
C264   H280    1.083   .     S
C264   C265    1.398   1_556 A
C265   H281    1.082   .     S
C265   C264    1.398   1_554 A
C266   C267    1.407   .     A
C266   C271    1.407   .     A
C267   C268    1.397   .     A
C267   H282    1.083   .     S
C268   C269    1.405   .     A
C268   H283    1.083   .     S
C269   C270    1.404   .     A
C269   C272    1.484   .     S
C270   C271    1.399   .     A
C270   H284    1.083   .     S
C271   H285    1.082   .     S
C272   C273    1.409   .     A
C272   C277    1.403   .     A
C273   C274    1.404   .     A
C273   H286    1.083   .     S
C274   C275    1.404   .     A
C274   H287    1.083   .     S
C275   C276    1.403   .     A
C276   C277    1.392   .     A
C276   H288    1.083   .     S
C277   H289    1.083   .     S
C290   C291    1.405   .     A
C290   C295    1.405   .     A
C290   C296    1.478   .     S
C291   C292    1.395   .     A
C291   H308    1.083   .     S
C292   C293    1.402   .     A
C292   H309    1.084   .     S
C293   C294    1.403   .     A
C294   C295    1.397   .     A
C294   H310    1.083   .     S
C295   H311    1.083   .     S
C296   C297    1.404   .     A
C296   C301    1.401   .     A
C297   C298    1.398   .     A
C297   H312    1.083   .     S
C298   C299    1.408   .     A
C298   H313    1.082   .     S
C299   C300    1.408   .     A
C299   C302    1.490   .     S
C300   C301    1.393   .     A
C300   H314    1.082   .     S
C301   H315    1.083   .     S
C302   C303    1.408   .     A
C302   C307    1.410   .     A
C303   H316    1.082   .     S
C303   C304    1.393   1_455 A
C304   C305    1.401   .     A
C304   H317    1.084   .     S
C304   C303    1.393   1_655 A
C305   C306    1.402   .     A
C306   H318    1.083   .     S
C306   C307    1.400   1_655 A
C307   H319    1.082   .     S
C307   C306    1.400   1_455 A
C320   C321    1.406   .     A
C320   C325    1.407   .     A
C320   C326    1.484   .     S
C321   H338    1.083   .     S
C321   C322    1.392   1_565 A
C322   C323    1.402   .     A
C322   H339    1.084   .     S
C322   C321    1.392   1_545 A
C323   C324    1.405   1_545 A
C324   C325    1.402   .     A
C324   H340    1.083   .     S
C324   C323    1.405   1_565 A
C325   H341    1.083   .     S
C326   C327    1.407   .     A
C326   C331    1.407   .     A
C327   H342    1.083   .     S
C327   C328    1.401   1_655 A
C328   C329    1.403   .     A
C328   H343    1.083   .     S
C328   C327    1.401   1_455 A
C329   C330    1.400   .     A
C329   C332    1.471   .     S
C330   H344    1.084   .     S
C330   C331    1.393   1_455 A
C331   H345    1.083   .     S
C331   C330    1.393   1_655 A
C332   C333    1.399   .     A
C332   C337    1.405   .     A
C333   C334    1.390   .     A
C333   H346    1.084   .     S
C334   C335    1.403   .     A
C334   H347    1.084   .     S
C335   C336    1.405   .     A
C336   C337    1.405   .     A
C336   H348    1.083   .     S
C337   H349    1.083   .     S
C350   C351    1.407   .     A
C350   C355    1.406   .     A
C350   C356    1.485   1_455 S
C351   C352    1.401   .     A
C351   H368    1.083   .     S
C352   C353    1.403   .     A
C352   H369    1.083   .     S
C353   C354    1.403   .     A
C354   C355    1.395   .     A
C354   H370    1.084   .     S
C355   H371    1.083   .     S
C356   C357    1.405   .     A
C356   C361    1.405   .     A
C356   C350    1.485   1_655 S
C357   C358    1.394   .     A
C357   H372    1.083   1_655 S
C358   C359    1.404   .     A
C358   H373    1.083   .     S
C359   C360    1.409   .     A
C359   C362    1.488   .     S
C360   C361    1.402   .     A
C360   H374    1.083   .     S
C361   H375    1.083   .     S
C362   C363    1.407   .     A
C362   C367    1.408   .     A
C363   C364    1.400   .     A
C363   H376    1.083   .     S
C364   C365    1.400   .     A
C364   H377    1.075   .     S
C365   C366    1.401   .     A
C366   C367    1.395   .     A
C366   H378    1.084   .     S
C367   H379    1.082   .     S
H372   C357    1.083   1_455 S
C380   C381    1.405   .     A
C380   C385    1.410   1_554 A
C380   C386    1.490   1_554 S
C381   C382    1.396   .     A
C381   H398    1.082   .     S
C382   C383    1.403   .     A
C382   H399    1.083   .     S
C383   C384    1.402   1_554 A
C384   C385    1.401   .     A
C384   H400    1.084   .     S
C384   C383    1.402   1_556 A
C385   H401    1.082   .     S
C385   C380    1.410   1_556 A
C386   C387    1.404   .     A
C386   C380    1.490   1_556 S
C386   C391    1.410   1_556 A
C387   C388    1.397   .     A
C387   H402    1.083   .     S
C388   C389    1.407   .     A
C388   H403    1.083   .     S
C389   C392    1.487   .     S
C389   C390    1.404   1_556 A
C390   C391    1.401   .     A
C390   H404    1.083   .     S
C390   C389    1.404   1_554 A
C391   H405    1.083   .     S
C391   C386    1.410   1_554 A
C392   C397    1.401   .     A
C392   C393    1.409   1_655 A
C393   C394    1.407   .     A
C393   C392    1.409   1_455 A
C393   H406    1.083   1_556 S
C394   C395    1.407   .     A
C394   H407    1.083   .     S
C395   C396    1.408   .     A
C396   H408    1.083   .     S
C396   C397    1.392   1_455 A
C397   H409    1.083   .     S
C397   C396    1.392   1_655 A
H406   C393    1.083   1_554 S
C410   C411    1.403   .     A
C410   C415    1.408   .     A
C410   C416    1.484   .     S
C411   C412    1.390   .     A
C411   H428    1.082   .     S
C412   C413    1.404   .     A
C412   H429    1.084   .     S
C413   C414    1.405   .     A
C414   C415    1.404   .     A
C414   H430    1.083   .     S
C415   H431    1.083   .     S
C416   C417    1.406   .     A
C416   C421    1.405   .     A
C417   C418    1.401   .     A
C417   H432    1.082   .     S
C418   C419    1.407   .     A
C418   H433    1.083   .     S
C419   C420    1.405   .     A
C419   C422    1.486   .     S
C420   C421    1.393   .     A
C420   H434    1.083   .     S
C421   H435    1.083   .     S
C422   C423    1.408   .     A
C422   C427    1.405   .     A
C423   C424    1.398   .     A
C423   H436    1.083   .     S
C424   C425    1.402   .     A
C424   H437    1.083   .     S
C425   C426    1.405   .     A
C426   C427    1.397   .     A
C426   H438    1.083   .     S
C427   H439    1.083   .     S
