data_lcy+N394+E28
_audit_creation_date              2025-01-21
_audit_creation_method            'Materials Studio'
_symmetry_space_group_name_H-M    'P1'
_symmetry_Int_Tables_number       1
_symmetry_cell_setting            triclinic
loop_
_symmetry_equiv_pos_as_xyz
  x,y,z
_cell_length_a                    33.8999
_cell_length_b                    31.3775
_cell_length_c                    32.7751
_cell_angle_alpha                 94.9438
_cell_angle_beta                  98.4420
_cell_angle_gamma                 88.9585
loop_
_atom_site_label
_atom_site_type_symbol
_atom_site_fract_x
_atom_site_fract_y
_atom_site_fract_z
_atom_site_U_iso_or_equiv
_atom_site_adp_type
_atom_site_occupancy
Pr0    Pr    0.09322   0.66722   0.87682   0.00000  Uiso   1.00
Pr1    Pr    0.13270   0.60782   0.94080   0.00000  Uiso   1.00
O2     O     0.08650   0.64209   0.97786   0.00000  Uiso   1.00
O3     O     0.06035   0.68948   0.93101   0.00000  Uiso   1.00
O4     O     0.04844   0.69369   0.82543   0.00000  Uiso   1.00
O5     O     0.09842   0.73236   0.85364   0.00000  Uiso   1.00
O6     O     0.14700   0.67115   0.92243   0.00000  Uiso   1.00
O7     O     0.13487   0.72636   0.88710   0.00000  Uiso   1.00
C8     C     0.09157   0.56522   0.87136   0.00000  Uiso   1.00
C9     C     0.06177   0.67234   0.96587   0.00000  Uiso   1.00
C10    C     0.06693   0.72918   0.82698   0.00000  Uiso   1.00
C11    C     0.16911   0.56096   1.00024   0.00000  Uiso   1.00
C12    C     0.16550   0.60937   0.84903   0.00000  Uiso   1.00
C13    C     0.15904   0.71050   0.91316   0.00000  Uiso   1.00
O14    O     0.13650   0.63509   0.83740   0.00000  Uiso   1.00
O15    O     0.17081   0.59334   0.88536   0.00000  Uiso   1.00
O16    O     0.18329   0.59607   0.99176   0.00000  Uiso   1.00
O17    O     0.13738   0.54829   0.97641   0.00000  Uiso   1.00
O18    O     0.07646   0.60077   0.89197   0.00000  Uiso   1.00
O19    O     0.12552   0.55702   0.88606   0.00000  Uiso   1.00
Pr20   Pr    0.63252   0.87212   0.06757   0.00000  Uiso   1.00
Pr21   Pr    0.60302   0.79640   0.12231   0.00000  Uiso   1.00
O22    O     0.66732   0.78880   0.09851   0.00000  Uiso   1.00
O23    O     0.66629   0.81889   0.03878   0.00000  Uiso   1.00
O24    O     0.67774   0.91766   0.05044   0.00000  Uiso   1.00
O25    O     0.62046   0.91289   1.01303   0.00000  Uiso   1.00
O26    O     0.57599   0.83661   0.07262   0.00000  Uiso   1.00
O27    O     0.58809   0.83883   0.01237   0.00000  Uiso   1.00
C28    C     0.65438   0.85874   0.16275   0.00000  Uiso   1.00
C29    C     0.68227   0.79341   0.06464   0.00000  Uiso   1.00
C30    C     0.65512   0.92920   0.01870   0.00000  Uiso   1.00
C31    C     0.57863   0.74822   0.17661   0.00000  Uiso   1.00
C32    C     0.57484   0.90374   0.13240   0.00000  Uiso   1.00
C33    C     0.56552   0.82375   0.03222   0.00000  Uiso   1.00
O34    O     0.59393   0.91508   0.10386   0.00000  Uiso   1.00
O35    O     0.57571   0.86483   0.14453   0.00000  Uiso   1.00
O36    O     0.55395   0.76649   0.14989   0.00000  Uiso   1.00
O37    O     0.61550   0.75668   0.17675   0.00000  Uiso   1.00
O38    O     0.65905   0.83702   0.12549   0.00000  Uiso   1.00
O39    O     0.62370   0.84894   0.17425   0.00000  Uiso   1.00
Pr40   Pr    0.89874   0.16158   0.56903   0.00000  Uiso   1.00
Pr41   Pr    0.84759   0.11918   0.62816   0.00000  Uiso   1.00
O42    O     0.88920   0.16279   0.67629   0.00000  Uiso   1.00
O43    O     0.92594   0.19268   0.63242   0.00000  Uiso   1.00
O44    O     0.92484   0.21474   0.53760   0.00000  Uiso   1.00
O45    O     0.95258   0.15295   0.53574   0.00000  Uiso   1.00
O46    O     0.89524   0.09670   0.59237   0.00000  Uiso   1.00
O47    O     0.94914   0.12858   0.61318   0.00000  Uiso   1.00
C48    C     0.80653   0.17287   0.57602   0.00000  Uiso   1.00
C49    C     0.91600   0.18900   0.66868   0.00000  Uiso   1.00
C50    C     0.95341   0.19148   0.52671   0.00000  Uiso   1.00
C51    C     0.80513   0.08601   0.68041   0.00000  Uiso   1.00
C52    C     0.83285   0.09009   0.52664   0.00000  Uiso   1.00
C53    C     0.93174   0.09601   0.61526   0.00000  Uiso   1.00
O54    O     0.86061   0.11621   0.52106   0.00000  Uiso   1.00
O55    O     0.82159   0.08512   0.56269   0.00000  Uiso   1.00
O56    O     0.83260   0.06495   0.66447   0.00000  Uiso   1.00
O57    O     0.79812   0.12325   0.66790   0.00000  Uiso   1.00
O58    O     0.84351   0.18210   0.59877   0.00000  Uiso   1.00
O59    O     0.79561   0.13714   0.58014   0.00000  Uiso   1.00
Pr60   Pr    0.38508   0.41314   0.44909   0.00000  Uiso   1.00
Pr61   Pr    0.40607   0.32058   0.40308   0.00000  Uiso   1.00
O62    O     0.35528   0.30822   0.44083   0.00000  Uiso   1.00
O63    O     0.33419   0.37351   0.46193   0.00000  Uiso   1.00
O64    O     0.35268   0.47321   0.47324   0.00000  Uiso   1.00
O65    O     0.39531   0.44290   0.51562   0.00000  Uiso   1.00
O66    O     0.43388   0.36365   0.45606   0.00000  Uiso   1.00
O67    O     0.41724   0.39128   0.51245   0.00000  Uiso   1.00
C68    C     0.34467   0.36479   0.35761   0.00000  Uiso   1.00
C69    C     0.33001   0.33309   0.45657   0.00000  Uiso   1.00
C70    C     0.36866   0.47157   0.51075   0.00000  Uiso   1.00
C71    C     0.42133   0.27595   0.33282   0.00000  Uiso   1.00
C72    C     0.44766   0.42155   0.39525   0.00000  Uiso   1.00
C73    C     0.43688   0.36277   0.49773   0.00000  Uiso   1.00
O74    O     0.43774   0.44097   0.42860   0.00000  Uiso   1.00
O75    O     0.43436   0.38336   0.37992   0.00000  Uiso   1.00
O76    O     0.44614   0.30254   0.35348   0.00000  Uiso   1.00
O77    O     0.38742   0.27698   0.34484   0.00000  Uiso   1.00
O78    O     0.37749   0.38357   0.38086   0.00000  Uiso   1.00
O79    O     0.34703   0.32651   0.35790   0.00000  Uiso   1.00
C80    C     0.44800   0.77498   0.98994   0.00000  Uiso   1.00
C81    C     0.46953   0.79311   0.96219   0.00000  Uiso   1.00
C82    C     0.50891   0.80676   0.97490   0.00000  Uiso   1.00
C83    C     0.52746   0.80231   0.01552   0.00000  Uiso   1.00
C84    C     0.50680   0.78202   0.04240   0.00000  Uiso   1.00
C85    C     0.46768   0.76810   0.02970   0.00000  Uiso   1.00
C86    C     0.40468   0.76606   0.97874   0.00000  Uiso   1.00
N87    N     0.38484   0.74543   0.00426   0.00000  Uiso   1.00
N88    N     0.34558   0.73961  -0.00441   0.00000  Uiso   1.00
C89    C     0.32429   0.75449   0.96123   0.00000  Uiso   1.00
N90    N     0.34412   0.77497   0.93557   0.00000  Uiso   1.00
N91    N     0.38346   0.78068   0.94419   0.00000  Uiso   1.00
C92    C     0.28054   0.74750   0.95169   0.00000  Uiso   1.00
C93    C     0.25697   0.76802   0.91997   0.00000  Uiso   1.00
C94    C     0.21623   0.75882   0.90950   0.00000  Uiso   1.00
C95    C     0.19871   0.72816   0.92981   0.00000  Uiso   1.00
C96    C     0.22166   0.70945   0.96284   0.00000  Uiso   1.00
C97    C     0.26201   0.71924   0.97389   0.00000  Uiso   1.00
H98    H     0.45554   0.79793   0.93104   0.00000  Uiso   1.00
H99    H     0.52402   0.82278   0.95370   0.00000  Uiso   1.00
H100   H     0.52047   0.77829   0.07386   0.00000  Uiso   1.00
H101   H     0.45241   0.75356   0.05173   0.00000  Uiso   1.00
H102   H     0.27016   0.79037   0.90259   0.00000  Uiso   1.00
H103   H     0.19887   0.77408   0.88427   0.00000  Uiso   1.00
H104   H     0.20873   0.68604   0.97933   0.00000  Uiso   1.00
H105   H     0.27903   0.70333  -0.00116   0.00000  Uiso   1.00
C106   C     0.46125   0.16661   0.26331   0.00000  Uiso   1.00
C107   C     0.42339   0.16729   0.27577   0.00000  Uiso   1.00
C108   C     0.40878   0.20470   0.29457   0.00000  Uiso   1.00
C109   C     0.43227   0.24184   0.30255   0.00000  Uiso   1.00
C110   C     0.46924   0.24194   0.28807   0.00000  Uiso   1.00
C111   C     0.48337   0.20472   0.26803   0.00000  Uiso   1.00
C112   C     0.47772   0.12611   0.24628   0.00000  Uiso   1.00
N113   N     0.50314   0.12634   0.21799   0.00000  Uiso   1.00
N114   N     0.51699   0.08984   0.20163   0.00000  Uiso   1.00
C115   C     0.50650   0.05154   0.21323   0.00000  Uiso   1.00
N116   N     0.48173   0.05124   0.24222   0.00000  Uiso   1.00
N117   N     0.46748   0.08781   0.25827   0.00000  Uiso   1.00
C118   C     0.52035   0.01146   0.19268   0.00000  Uiso   1.00
C119   C     0.52939   0.97450   0.21383   0.00000  Uiso   1.00
C120   C     0.54551   0.93811   0.19396   0.00000  Uiso   1.00
C121   C     0.55238   0.93831   0.15271   0.00000  Uiso   1.00
C122   C     0.54113   0.97458   0.13128   0.00000  Uiso   1.00
C123   C     0.52572   0.01071   0.15109   0.00000  Uiso   1.00
H124   H     0.40539   0.13862   0.27175   0.00000  Uiso   1.00
H125   H     0.38015   0.20361   0.30541   0.00000  Uiso   1.00
H126   H     0.48788   0.27014   0.29384   0.00000  Uiso   1.00
H127   H     0.51246   0.20516   0.25811   0.00000  Uiso   1.00
H128   H     0.52575   0.97446   0.24610   0.00000  Uiso   1.00
H129   H     0.55423   0.91075   0.21130   0.00000  Uiso   1.00
H130   H     0.54530   0.97555   0.09923   0.00000  Uiso   1.00
H131   H     0.51847   0.03848   0.13389   0.00000  Uiso   1.00
C132   C     0.70536   0.24656   0.53942   0.00000  Uiso   1.00
C133   C     0.73612   0.26476   0.56897   0.00000  Uiso   1.00
C134   C     0.77264   0.24333   0.57717   0.00000  Uiso   1.00
C135   C     0.77859   0.20351   0.55602   0.00000  Uiso   1.00
C136   C     0.74982   0.18802   0.52320   0.00000  Uiso   1.00
C137   C     0.71353   0.20939   0.51487   0.00000  Uiso   1.00
C138   C     0.66387   0.26267   0.53756   0.00000  Uiso   1.00
N139   N     0.63370   0.24080   0.51331   0.00000  Uiso   1.00
N140   N     0.59597   0.25285   0.51381   0.00000  Uiso   1.00
C141   C     0.58664   0.28710   0.53888   0.00000  Uiso   1.00
N142   N     0.61679   0.30917   0.56310   0.00000  Uiso   1.00
N143   N     0.65462   0.29702   0.56266   0.00000  Uiso   1.00
C144   C     0.54468   0.30161   0.53728   0.00000  Uiso   1.00
C145   C     0.53484   0.34001   0.55911   0.00000  Uiso   1.00
C146   C     0.49662   0.35782   0.55074   0.00000  Uiso   1.00
C147   C     0.46810   0.33749   0.52031   0.00000  Uiso   1.00
C148   C     0.47655   0.29705   0.50198   0.00000  Uiso   1.00
C149   C     0.51443   0.27913   0.51047   0.00000  Uiso   1.00
H150   H     0.73091   0.29362   0.58807   0.00000  Uiso   1.00
H151   H     0.79419   0.25541   0.60314   0.00000  Uiso   1.00
H152   H     0.75384   0.15718   0.50669   0.00000  Uiso   1.00
H153   H     0.69080   0.19479   0.49144   0.00000  Uiso   1.00
H154   H     0.55736   0.35784   0.58033   0.00000  Uiso   1.00
H155   H     0.49082   0.38942   0.56472   0.00000  Uiso   1.00
H156   H     0.45489   0.28105   0.47824   0.00000  Uiso   1.00
H157   H     0.52069   0.24916   0.49361   0.00000  Uiso   1.00
C158   C     0.75247   0.04453   0.78135   0.00000  Uiso   1.00
C159   C     0.78526   0.02255   0.76777   0.00000  Uiso   1.00
C160   C     0.80116   0.03487   0.73366   0.00000  Uiso   1.00
C161   C     0.78491   0.06975   0.71276   0.00000  Uiso   1.00
C162   C     0.75137   0.09099   0.72546   0.00000  Uiso   1.00
C163   C     0.73506   0.07824   0.75926   0.00000  Uiso   1.00
C164   C     0.73759   0.03313   0.81918   0.00000  Uiso   1.00
N165   N     0.69993   0.04348   0.82619   0.00000  Uiso   1.00
N166   N     0.68679   0.03287   0.86033   0.00000  Uiso   1.00
C167   C     0.71099   1.01207   0.88910   0.00000  Uiso   1.00
N168   N     0.74872   1.00212   0.88219   0.00000  Uiso   1.00
N169   N     0.76173   1.01239   0.84796   0.00000  Uiso   1.00
C170   C     0.69600   0.99752   0.92568   0.00000  Uiso   1.00
C171   C     0.72294   0.98527   0.95954   0.00000  Uiso   1.00
C172   C     0.70934   0.96517   0.99118   0.00000  Uiso   1.00
C173   C     0.66860   0.95681   0.98942   0.00000  Uiso   1.00
C174   C     0.64139   0.97152   0.95704   0.00000  Uiso   1.00
C175   C     0.65494   0.99210   0.92562   0.00000  Uiso   1.00
H176   H     0.79895   0.99604   0.78379   0.00000  Uiso   1.00
H177   H     0.82709   0.01806   0.72458   0.00000  Uiso   1.00
H178   H     0.73826   0.11799   0.70979   0.00000  Uiso   1.00
H179   H     0.70966   0.09563   0.76892   0.00000  Uiso   1.00
H180   H     0.75468   0.99002   0.96097   0.00000  Uiso   1.00
H181   H     0.73090   0.95435   1.01596   0.00000  Uiso   1.00
H182   H     0.60974   0.96577   0.95526   0.00000  Uiso   1.00
H183   H     0.63341   0.00176   0.90026   0.00000  Uiso   1.00
C184   C     0.78138   0.02309   0.41240   0.00000  Uiso   1.00
C185   C     0.78652   1.00189   0.44901   0.00000  Uiso   1.00
C186   C     0.80127   0.02396   0.48714   0.00000  Uiso   1.00
C187   C     0.81195   0.06713   0.48876   0.00000  Uiso   1.00
C188   C     0.80552   0.08843   0.45242   0.00000  Uiso   1.00
C189   C     0.79022   0.06679   0.41475   0.00000  Uiso   1.00
C190   C     0.76727   1.00023   0.37164   0.00000  Uiso   1.00
N191   N     0.74982   0.02225   0.33984   0.00000  Uiso   1.00
N192   N     0.73717   0.00213   0.30292   0.00000  Uiso   1.00
C193   C     0.74202   0.95923   0.29612   0.00000  Uiso   1.00
N194   N     0.75977   0.93715   0.32782   0.00000  Uiso   1.00
N195   N     0.77217   0.95727   0.36492   0.00000  Uiso   1.00
C196   C     0.72490   0.93662   0.25617   0.00000  Uiso   1.00
C197   C     0.73852   0.89562   0.24376   0.00000  Uiso   1.00
C198   C     0.71770   0.87164   0.20962   0.00000  Uiso   1.00
C199   C     0.68284   0.88815   0.18803   0.00000  Uiso   1.00
C200   C     0.67090   0.93014   0.19844   0.00000  Uiso   1.00
C201   C     0.69213   0.95446   0.23189   0.00000  Uiso   1.00
H202   H     0.77930   0.96832   0.44808   0.00000  Uiso   1.00
H203   H     0.80572   1.00700   0.51488   0.00000  Uiso   1.00
H204   H     0.81296   0.12195   0.45308   0.00000  Uiso   1.00
H205   H     0.78646   0.08412   0.38725   0.00000  Uiso   1.00
H206   H     0.76420   0.88145   0.26140   0.00000  Uiso   1.00
H207   H     0.72693   0.83901   0.20216   0.00000  Uiso   1.00
H208   H     0.64392   0.94328   0.18219   0.00000  Uiso   1.00
H209   H     0.68119   0.98613   0.24041   0.00000  Uiso   1.00
C210   C     0.32107   0.52929   0.61671   0.00000  Uiso   1.00
C211   C     0.30223   0.53586   0.57645   0.00000  Uiso   1.00
C212   C     0.31894   0.51950   0.54167   0.00000  Uiso   1.00
C213   C     0.35499   0.49656   0.54646   0.00000  Uiso   1.00
C214   C     0.37482   0.49189   0.58665   0.00000  Uiso   1.00
C215   C     0.35802   0.50798   0.62138   0.00000  Uiso   1.00
C216   C     0.30117   0.54258   0.65329   0.00000  Uiso   1.00
N217   N     0.31340   0.52717   0.69069   0.00000  Uiso   1.00
N218   N     0.29404   0.53756   0.72285   0.00000  Uiso   1.00
C219   C     0.26170   0.56391   0.71888   0.00000  Uiso   1.00
N220   N     0.24977   0.57944   0.68157   0.00000  Uiso   1.00
N221   N     0.26894   0.56894   0.64948   0.00000  Uiso   1.00
C222   C     0.23920   0.57566   0.75393   0.00000  Uiso   1.00
C223   C     0.21113   0.60895   0.75041   0.00000  Uiso   1.00
C224   C     0.18813   0.61967   0.78159   0.00000  Uiso   1.00
C225   C     0.19212   0.59739   0.81753   0.00000  Uiso   1.00
C226   C     0.22068   0.56442   0.82169   0.00000  Uiso   1.00
C227   C     0.24431   0.55385   0.79025   0.00000  Uiso   1.00
H228   H     0.27362   0.55195   0.57169   0.00000  Uiso   1.00
H229   H     0.30261   0.52285   0.51113   0.00000  Uiso   1.00
H230   H     0.40255   0.47407   0.59131   0.00000  Uiso   1.00
H231   H     0.37348   0.50264   0.65185   0.00000  Uiso   1.00
H232   H     0.20678   0.62704   0.72338   0.00000  Uiso   1.00
H233   H     0.16697   0.64573   0.77717   0.00000  Uiso   1.00
H234   H     0.22440   0.54663   0.84886   0.00000  Uiso   1.00
H235   H     0.26607   0.52829   0.79412   0.00000  Uiso   1.00
C236   C     0.21494   0.49965   0.10996   0.00000  Uiso   1.00
C237   C     0.19221   0.47619   0.07630   0.00000  Uiso   1.00
C238   C     0.17786   0.49569   1.04006   0.00000  Uiso   1.00
C239   C     0.18665   0.53870   1.03660   0.00000  Uiso   1.00
C240   C     0.21014   0.56178   0.06978   0.00000  Uiso   1.00
C241   C     0.22385   0.54262   0.10613   0.00000  Uiso   1.00
C242   C     0.22910   0.48001   0.14918   0.00000  Uiso   1.00
N243   N     0.24939   0.50385   0.18177   0.00000  Uiso   1.00
N244   N     0.26288   0.48653   0.21691   0.00000  Uiso   1.00
C245   C     0.25655   0.44466   0.22099   0.00000  Uiso   1.00
N246   N     0.23598   0.42074   0.18851   0.00000  Uiso   1.00
N247   N     0.22242   0.43813   0.15326   0.00000  Uiso   1.00
C248   C     0.27432   0.42515   0.25925   0.00000  Uiso   1.00
C249   C     0.26874   0.38165   0.26396   0.00000  Uiso   1.00
C250   C     0.28968   0.36248   0.29772   0.00000  Uiso   1.00
C251   C     0.31640   0.38648   0.32746   0.00000  Uiso   1.00
C252   C     0.32022   0.43037   0.32408   0.00000  Uiso   1.00
C253   C     0.29938   0.44952   0.29037   0.00000  Uiso   1.00
H254   H     0.18501   0.44296   0.07811   0.00000  Uiso   1.00
H255   H     0.15975   0.47725   1.01487   0.00000  Uiso   1.00
H256   H     0.21684   0.59521   0.06823   0.00000  Uiso   1.00
H257   H     0.24104   0.56181   0.13144   0.00000  Uiso   1.00
H258   H     0.24939   0.36201   0.24083   0.00000  Uiso   1.00
H259   H     0.28657   0.32840   0.29939   0.00000  Uiso   1.00
H260   H     0.34085   0.44951   0.34638   0.00000  Uiso   1.00
H261   H     0.30428   0.48312   0.28785   0.00000  Uiso   1.00
C262   C     0.21601   0.28692   0.47506   0.00000  Uiso   1.00
C263   C     0.22920   0.32777   0.49171   0.00000  Uiso   1.00
C264   C     0.26718   0.34164   0.48780   0.00000  Uiso   1.00
C265   C     0.29295   0.31513   0.46687   0.00000  Uiso   1.00
C266   C     0.28046   0.27356   0.45160   0.00000  Uiso   1.00
C267   C     0.24233   0.25958   0.45566   0.00000  Uiso   1.00
C268   C     0.17472   0.27360   0.47722   0.00000  Uiso   1.00
N269   N     0.16249   0.23298   0.46480   0.00000  Uiso   1.00
N270   N     0.12538   0.22118   0.46700   0.00000  Uiso   1.00
C271   C     0.09884   0.24954   0.48140   0.00000  Uiso   1.00
N272   N     0.11101   0.29022   0.49360   0.00000  Uiso   1.00
N273   N     0.14813   0.30199   0.49147   0.00000  Uiso   1.00
C274   C     0.05854   0.23550   0.48659   0.00000  Uiso   1.00
C275   C     0.03035   0.26469   0.50044   0.00000  Uiso   1.00
C276   C    -0.00531   0.24994   0.51111   0.00000  Uiso   1.00
C277   C     0.98677   0.20768   0.50825   0.00000  Uiso   1.00
C278   C     0.01322   0.17818   0.49178   0.00000  Uiso   1.00
C279   C     0.04877   0.19195   0.48082   0.00000  Uiso   1.00
H280   H     0.20985   0.34955   0.50708   0.00000  Uiso   1.00
H281   H     0.27581   0.37381   0.50005   0.00000  Uiso   1.00
H282   H     0.29942   0.25248   0.43498   0.00000  Uiso   1.00
H283   H     0.23307   0.22787   0.44249   0.00000  Uiso   1.00
H284   H     0.03654   0.29865   0.50479   0.00000  Uiso   1.00
H285   H     0.97463   0.27303   0.52382   0.00000  Uiso   1.00
H286   H     0.00712   0.14422   0.48888   0.00000  Uiso   1.00
H287   H     0.06923   0.16832   0.46970   0.00000  Uiso   1.00
C288   C     0.97489  -0.01404   0.67811   0.00000  Uiso   1.00
C289   C     0.93687  -0.01344   0.65441   0.00000  Uiso   1.00
C290   C     0.92332   0.02261   0.63442   0.00000  Uiso   1.00
C291   C     0.94715   0.05919   0.63790   0.00000  Uiso   1.00
C292   C     0.98503   0.05919   0.66181   0.00000  Uiso   1.00
C293   C     0.99889   0.02273   0.68164   0.00000  Uiso   1.00
C294   C     0.98916   0.94691   0.69861   0.00000  Uiso   1.00
N295   N     0.02548   0.94582   0.72224   0.00000  Uiso   1.00
N296   N     0.03802   0.91065   0.74064   0.00000  Uiso   1.00
C297   C     0.01480   0.87523   0.73607   0.00000  Uiso   1.00
N298   N     0.97852   0.87631   0.71237   0.00000  Uiso   1.00
N299   N     0.96598   0.91146   0.69399   0.00000  Uiso   1.00
C300   C     0.02848   0.83649   0.75739   0.00000  Uiso   1.00
C301   C     1.00410   0.80005   0.75406   0.00000  Uiso   1.00
C302   C     0.01668   0.76439   0.77576   0.00000  Uiso   1.00
C303   C     0.05375   0.76472   0.80129   0.00000  Uiso   1.00
C304   C     0.07834   0.80069   0.80383   0.00000  Uiso   1.00
C305   C     0.06596   0.83605   0.78215   0.00000  Uiso   1.00
H306   H     0.91749  -0.04096   0.65092   0.00000  Uiso   1.00
H307   H     0.89412   0.02166   0.61577   0.00000  Uiso   1.00
H308   H     1.00392   0.08711   0.66489   0.00000  Uiso   1.00
H309   H     0.02844   0.02326   0.69943   0.00000  Uiso   1.00
H310   H     0.97505   0.79929   0.73519   0.00000  Uiso   1.00
H311   H     0.99718   0.73702   0.77315   0.00000  Uiso   1.00
H312   H     0.10717   0.80178   0.82313   0.00000  Uiso   1.00
H313   H     0.08569   0.86326   0.78536   0.00000  Uiso   1.00
C314   C     0.03079   0.46087   0.79956   0.00000  Uiso   1.00
C315   C     0.00911   0.49167   0.82117   0.00000  Uiso   1.00
C316   C     0.02790   0.52876   0.84129   0.00000  Uiso   1.00
C317   C     0.06857   0.53520   0.84035   0.00000  Uiso   1.00
C318   C     0.08917   0.50642   0.81587   0.00000  Uiso   1.00
C319   C     0.07043   0.46983   0.79543   0.00000  Uiso   1.00
C320   C     0.01383   0.41820   0.78422   0.00000  Uiso   1.00
N321   N     0.03647   0.38812   0.76610   0.00000  Uiso   1.00
N322   N     0.02239   0.34909   0.75383   0.00000  Uiso   1.00
C323   C     0.98509   0.33820   0.75938   0.00000  Uiso   1.00
N324   N     0.96238   0.36821   0.77763   0.00000  Uiso   1.00
N325   N     0.97652   0.40735   0.78998   0.00000  Uiso   1.00
C326   C     0.96904   0.29528   0.74354   0.00000  Uiso   1.00
C327   C     0.92925   0.28463   0.74561   0.00000  Uiso   1.00
C328   C     0.91276   0.24658   0.72513   0.00000  Uiso   1.00
C329   C     0.93575   0.21897   0.70202   0.00000  Uiso   1.00
C330   C     0.97628   0.22770   0.70299   0.00000  Uiso   1.00
C331   C     0.99279   0.26545   0.72347   0.00000  Uiso   1.00
H332   H    -0.02165   0.48609   0.82441   0.00000  Uiso   1.00
H333   H     0.01156   0.55048   0.86028   0.00000  Uiso   1.00
H334   H     0.12062   0.51080   0.81476   0.00000  Uiso   1.00
H335   H     0.08784   0.44739   0.77833   0.00000  Uiso   1.00
H336   H     0.91022   0.30678   0.76099   0.00000  Uiso   1.00
H337   H     0.88126   0.24067   0.72437   0.00000  Uiso   1.00
H338   H     0.99446   0.20660   0.68539   0.00000  Uiso   1.00
H339   H     1.02362   0.27221   0.72151   0.00000  Uiso   1.00
C340   C     0.80262   0.75205   0.05376   0.00000  Uiso   1.00
C341   C     0.77922   0.72849   0.07589   0.00000  Uiso   1.00
C342   C     0.73965   0.74107   0.07929   0.00000  Uiso   1.00
C343   C     0.72266   0.77659   0.05956   0.00000  Uiso   1.00
C344   C     0.74608   0.79930   0.03690   0.00000  Uiso   1.00
C345   C     0.78543   0.78750   0.03438   0.00000  Uiso   1.00
C346   C     0.84475   0.74079   0.05014   0.00000  Uiso   1.00
N347   N     0.86879   0.77049   0.03898   0.00000  Uiso   1.00
N348   N     0.90567   0.76056   1.03223   0.00000  Uiso   1.00
C349   C     0.92036   0.72043   1.03630   0.00000  Uiso   1.00
N350   N     0.89668   0.69071   1.04836   0.00000  Uiso   1.00
N351   N     0.85960   0.70072   1.05526   0.00000  Uiso   1.00
C352   C     0.96011   0.70922   1.02437   0.00000  Uiso   1.00
C353   C     0.97637   0.66783   1.02739   0.00000  Uiso   1.00
C354   C     1.01168   0.65673   1.01137   0.00000  Uiso   1.00
C355   C     0.03093   0.68657   0.99156   0.00000  Uiso   1.00
C356   C     0.01561   0.72831   0.99015   0.00000  Uiso   1.00
C357   C     0.98088   0.73961   1.00666   0.00000  Uiso   1.00
H358   H     0.79177   0.70105   0.09123   0.00000  Uiso   1.00
H359   H     0.72251   0.72322   0.09738   0.00000  Uiso   1.00
H360   H     0.73446   0.82741   0.02208   0.00000  Uiso   1.00
H361   H     0.80245   0.80645   0.01710   0.00000  Uiso   1.00
H362   H     0.96108   0.64355   1.04058   0.00000  Uiso   1.00
H363   H     1.02246   0.62407   1.01199   0.00000  Uiso   1.00
H364   H     0.02960   0.75183   0.97471   0.00000  Uiso   1.00
H365   H     0.96937   0.77180   1.00371   0.00000  Uiso   1.00
C366   C     0.54502   0.65082   0.24864   0.00000  Uiso   1.00
C367   C     0.58363   0.66799   0.25666   0.00000  Uiso   1.00
C368   C     0.59407   0.70085   0.23419   0.00000  Uiso   1.00
C369   C     0.56603   0.71747   0.20363   0.00000  Uiso   1.00
C370   C     0.52700   0.70153   0.19669   0.00000  Uiso   1.00
C371   C     0.51664   0.66839   0.21888   0.00000  Uiso   1.00
C372   C     0.53472   0.61364   0.26984   0.00000  Uiso   1.00
N373   N     0.50287   0.58897   0.25347   0.00000  Uiso   1.00
N374   N     0.49383   0.55492   0.27181   0.00000  Uiso   1.00
C375   C     0.51623   0.54413   0.30728   0.00000  Uiso   1.00
N376   N     0.54801   0.56892   0.32384   0.00000  Uiso   1.00
N377   N     0.55725   0.60286   0.30529   0.00000  Uiso   1.00
C378   C     0.50450   0.50758   0.32853   0.00000  Uiso   1.00
C379   C     0.51704   0.50522   0.37107   0.00000  Uiso   1.00
C380   C     0.50042   0.47502   0.39241   0.00000  Uiso   1.00
C381   C     0.47160   0.44616   0.37148   0.00000  Uiso   1.00
C382   C     0.46176   0.44592   0.32838   0.00000  Uiso   1.00
C383   C     0.47796   0.47654   0.30711   0.00000  Uiso   1.00
H384   H     0.60622   0.65507   0.27921   0.00000  Uiso   1.00
H385   H     0.62444   0.71246   0.23993   0.00000  Uiso   1.00
H386   H     0.50487   0.71354   0.17307   0.00000  Uiso   1.00
H387   H     0.48654   0.65608   0.21228   0.00000  Uiso   1.00
H388   H     0.53804   0.52811   0.38833   0.00000  Uiso   1.00
H389   H     0.50890   0.47527   0.42560   0.00000  Uiso   1.00
H390   H     0.43961   0.42399   0.31153   0.00000  Uiso   1.00
H391   H     0.46864   0.47689   0.27409   0.00000  Uiso   1.00
loop_
_geom_bond_atom_site_label_1
_geom_bond_atom_site_label_2
_geom_bond_distance
_geom_bond_site_symmetry_2
_ccdc_geom_bond_type
Pr0    O3      2.285   .     S
Pr0    O4      2.297   .     S
Pr0    O5      2.260   .     S
Pr0    O6      2.180   .     S
Pr0    O7      2.323   .     S
Pr0    O14     2.262   .     S
Pr0    O18     2.285   .     S
Pr1    O2      2.314   .     S
Pr1    O6      2.208   .     S
Pr1    O15     2.388   .     S
Pr1    O16     2.260   .     S
Pr1    O17     2.277   .     S
Pr1    O18     2.303   .     S
Pr1    O19     2.283   .     S
O2     C9      1.303   .     A
O3     C9      1.298   .     A
O4     C10     1.281   .     A
O5     C10     1.276   .     A
O6     C13     1.379   .     S
O7     C13     1.225   .     D
C8     O18     1.383   .     S
C8     O19     1.213   .     D
C8     C317    1.469   .     S
C9     C355    1.476   .     S
C10    C303    1.478   .     S
C11    O16     1.278   .     A
C11    O17     1.281   .     A
C11    C239    1.477   .     S
C12    O14     1.295   .     A
C12    O15     1.319   .     A
C12    C225    1.489   .     S
C13    C95     1.474   .     S
Pr20   O23     2.229   .     S
Pr20   O24     2.276   .     S
Pr20   O26     2.268   .     S
Pr20   O27     2.359   .     S
Pr20   O34     2.249   .     S
Pr20   O38     2.334   .     S
Pr20   O25     2.271   1_554 S
Pr21   O22     2.422   .     S
Pr21   O26     2.227   .     S
Pr21   O35     2.420   .     S
Pr21   O36     2.261   .     S
Pr21   O37     2.249   .     S
Pr21   O38     2.291   .     S
Pr21   O39     2.305   .     S
O22    C29     1.306   .     A
O23    C29     1.272   .     A
O24    C30     1.273   .     A
O25    Pr20    2.271   1_556 S
O25    C30     1.272   1_556 A
O26    C33     1.348   .     S
O27    C33     1.202   .     D
C28    O38     1.375   .     S
C28    O39     1.210   .     D
C28    C199    1.461   .     S
C29    C343    1.485   .     S
C30    O25     1.272   1_554 A
C30    C173    1.472   1_554 S
C31    O36     1.284   .     A
C31    O37     1.282   .     A
C31    C369    1.474   .     S
C32    O34     1.290   .     A
C32    O35     1.315   .     A
C32    C121    1.481   .     S
C33    C83     1.476   .     S
Pr40   O43     2.289   .     S
Pr40   O44     2.290   .     S
Pr40   O45     2.261   .     S
Pr40   O46     2.247   .     S
Pr40   O47     2.357   .     S
Pr40   O54     2.292   .     S
Pr40   O58     2.292   .     S
Pr41   O42     2.323   .     S
Pr41   O46     2.203   .     S
Pr41   O55     2.368   .     S
Pr41   O56     2.264   .     S
Pr41   O57     2.265   .     S
Pr41   O58     2.264   .     S
Pr41   O59     2.281   .     S
O42    C49     1.301   .     A
O43    C49     1.297   .     A
O44    C50     1.276   .     A
O45    C50     1.271   .     A
O46    C53     1.350   .     S
O47    C53     1.201   .     D
C48    O58     1.383   .     S
C48    O59     1.212   .     D
C48    C135    1.464   .     S
C49    C329    1.469   .     S
C50    C277    1.476   .     S
C51    O56     1.280   .     A
C51    O57     1.278   .     A
C51    C161    1.474   .     S
C52    O54     1.302   .     A
C52    O55     1.316   .     A
C52    C187    1.472   .     S
C53    C291    1.473   .     S
Pr60   O63     2.254   .     S
Pr60   O64     2.304   .     S
Pr60   O65     2.277   .     S
Pr60   O66     2.249   .     S
Pr60   O67     2.351   .     S
Pr60   O74     2.216   .     S
Pr60   O78     2.326   .     S
Pr61   O62     2.319   .     S
Pr61   O66     2.212   .     S
Pr61   O75     2.432   .     S
Pr61   O76     2.296   .     S
Pr61   O77     2.268   .     S
Pr61   O78     2.312   .     S
Pr61   O79     2.323   .     S
O62    C69     1.282   .     A
O63    C69     1.273   .     A
O64    C70     1.273   .     A
O65    C70     1.266   .     A
O66    C73     1.357   .     S
O67    C73     1.214   .     D
C68    O78     1.365   .     S
C68    O79     1.203   .     D
C68    C251    1.474   .     S
C69    C265    1.481   .     S
C70    C213    1.479   .     S
C71    O76     1.274   .     A
C71    O77     1.268   .     A
C71    C109    1.476   .     S
C72    O74     1.290   .     A
C72    O75     1.319   .     A
C72    C381    1.475   .     S
C73    C147    1.462   .     S
C80    C81     1.408   .     A
C80    C86     1.486   .     S
C80    C85     1.406   1_556 A
C81    C82     1.402   .     A
C81    H98     1.083   .     S
C82    H99     1.083   .     S
C82    C83     1.404   1_556 A
C83    C84     1.402   .     A
C83    C82     1.404   1_554 A
C84    C85     1.397   .     A
C84    H100    1.082   .     S
C85    H101    1.083   .     S
C85    C80     1.406   1_554 A
C86    N91     1.360   .     A
C86    N87     1.358   1_556 A
N87    N88     1.332   .     A
N87    C86     1.358   1_554 A
N88    C89     1.359   1_554 A
C89    N90     1.359   .     A
C89    C92     1.486   .     S
C89    N88     1.359   1_556 A
N90    N91     1.334   .     A
C92    C93     1.409   .     A
C92    C97     1.406   .     A
C93    C94     1.403   .     A
C93    H102    1.082   .     S
C94    C95     1.403   .     A
C94    H103    1.083   .     S
C95    C96     1.403   .     A
C96    C97     1.396   .     A
C96    H104    1.083   .     S
C97    H105    1.083   1_556 S
H105   C97     1.083   1_554 S
C106   C107    1.402   .     A
C106   C111    1.408   .     A
C106   C112    1.477   .     S
C107   C108    1.395   .     A
C107   H124    1.084   .     S
C108   C109    1.407   .     A
C108   H125    1.084   .     S
C109   C110    1.404   .     A
C110   C111    1.402   .     A
C110   H126    1.084   .     S
C111   H127    1.083   .     S
C112   N113    1.356   .     A
C112   N117    1.362   .     A
N113   N114    1.330   .     A
N114   C115    1.360   .     A
C115   N116    1.358   .     A
C115   C118    1.477   .     S
N116   N117    1.333   .     A
C118   C123    1.400   .     A
C118   C119    1.408   1_545 A
C119   C120    1.407   .     A
C119   H128    1.083   .     S
C119   C118    1.408   1_565 A
C120   C121    1.406   .     A
C120   H129    1.083   .     S
C121   C122    1.406   .     A
C122   H130    1.083   .     S
C122   C123    1.390   1_565 A
C123   H131    1.083   .     S
C123   C122    1.390   1_545 A
C132   C133    1.408   .     A
C132   C137    1.406   .     A
C132   C138    1.481   .     S
C133   C134    1.400   .     A
C133   H150    1.083   .     S
C134   C135    1.402   .     A
C134   H151    1.083   .     S
C135   C136    1.401   .     A
C136   C137    1.393   .     A
C136   H152    1.084   .     S
C137   H153    1.083   .     S
C138   N139    1.357   .     A
C138   N143    1.359   .     A
N139   N140    1.329   .     A
N140   C141    1.357   .     A
C141   N142    1.359   .     A
C141   C144    1.481   .     S
N142   N143    1.333   .     A
C144   C145    1.408   .     A
C144   C149    1.406   .     A
C145   C146    1.401   .     A
C145   H154    1.083   .     S
C146   C147    1.402   .     A
C146   H155    1.083   .     S
C147   C148    1.400   .     A
C148   C149    1.392   .     A
C148   H156    1.084   .     S
C149   H157    1.083   .     S
C158   C159    1.405   .     A
C158   C163    1.405   .     A
C158   C164    1.479   .     S
C159   C160    1.396   .     A
C159   H176    1.083   1_545 S
C160   C161    1.403   .     A
C160   H177    1.083   .     S
C161   C162    1.405   .     A
C162   C163    1.399   .     A
C162   H178    1.083   .     S
C163   H179    1.083   .     S
C164   N165    1.359   .     A
C164   N169    1.358   1_545 A
N165   N166    1.333   .     A
N166   C167    1.359   1_545 A
C167   N168    1.357   .     A
C167   C170    1.479   .     S
C167   N166    1.359   1_565 A
N168   N169    1.330   .     A
N169   C164    1.358   1_565 A
C170   C171    1.406   .     A
C170   C175    1.405   .     A
C171   C172    1.396   .     A
C171   H180    1.083   .     S
C172   C173    1.402   .     A
C172   H181    1.083   .     S
C173   C174    1.404   .     A
C173   C30     1.472   1_556 S
C174   C175    1.398   .     A
C174   H182    1.083   .     S
C175   H183    1.083   1_565 S
H176   C159    1.083   1_565 S
H183   C175    1.083   1_545 S
C184   C189    1.402   .     A
C184   C185    1.408   1_545 A
C184   C190    1.479   1_545 S
C185   H202    1.083   .     S
C185   C184    1.408   1_565 A
C185   C186    1.404   1_565 A
C186   C187    1.403   .     A
C186   C185    1.404   1_545 A
C186   H203    1.083   1_545 S
C187   C188    1.403   .     A
C188   C189    1.391   .     A
C188   H204    1.084   .     S
C189   H205    1.083   .     S
C190   N195    1.358   .     A
C190   C184    1.479   1_565 S
C190   N191    1.357   1_565 A
N191   N192    1.332   .     A
N191   C190    1.357   1_545 A
N192   C193    1.356   1_545 A
C193   N194    1.359   .     A
C193   C196    1.478   .     S
C193   N192    1.356   1_565 A
N194   N195    1.335   .     A
C196   C197    1.406   .     A
C196   C201    1.406   .     A
C197   C198    1.399   .     A
C197   H206    1.083   .     S
C198   C199    1.400   .     A
C198   H207    1.083   .     S
C199   C200    1.400   .     A
C200   C201    1.395   .     A
C200   H208    1.082   .     S
C201   H209    1.083   .     S
H203   C186    1.083   1_565 S
C210   C211    1.409   .     A
C210   C215    1.404   .     A
C210   C216    1.486   .     S
C211   C212    1.401   .     A
C211   H228    1.082   .     S
C212   C213    1.403   .     A
C212   H229    1.083   .     S
C213   C214    1.407   .     A
C214   C215    1.398   .     A
C214   H230    1.083   .     S
C215   H231    1.083   .     S
C216   N217    1.362   .     A
C216   N221    1.356   .     A
N217   N218    1.336   .     A
N218   C219    1.359   .     A
C219   N220    1.359   .     A
C219   C222    1.487   .     S
N220   N221    1.331   .     A
C222   C223    1.401   .     A
C222   C227    1.411   .     A
C223   C224    1.389   .     A
C223   H232    1.083   .     S
C224   C225    1.409   .     A
C224   H233    1.083   .     S
C225   C226    1.405   .     A
C226   C227    1.410   .     A
C226   H234    1.082   .     S
C227   H235    1.083   .     S
C236   C237    1.408   .     A
C236   C241    1.407   .     A
C236   C242    1.486   .     S
C237   H254    1.084   .     S
C237   C238    1.402   1_554 A
C238   C239    1.405   .     A
C238   H255    1.084   .     S
C238   C237    1.402   1_556 A
C239   C240    1.404   1_556 A
C240   C241    1.395   .     A
C240   H256    1.084   .     S
C240   C239    1.404   1_554 A
C241   H257    1.084   .     S
C242   N243    1.356   .     A
C242   N247    1.359   .     A
N243   N244    1.332   .     A
N244   C245    1.356   .     A
C245   N246    1.359   .     A
C245   C248    1.485   .     S
N246   N247    1.337   .     A
C248   C249    1.406   .     A
C248   C253    1.408   .     A
C249   C250    1.400   .     A
C249   H258    1.083   .     S
C250   C251    1.406   .     A
C250   H259    1.083   .     S
C251   C252    1.401   .     A
C252   C253    1.397   .     A
C252   H260    1.083   .     S
C253   H261    1.082   .     S
C262   C263    1.404   .     A
C262   C267    1.407   .     A
C262   C268    1.481   .     S
C263   C264    1.393   .     A
C263   H280    1.083   .     S
C264   C265    1.406   .     A
C264   H281    1.083   .     S
C265   C266    1.406   .     A
C266   C267    1.401   .     A
C266   H282    1.083   .     S
C267   H283    1.083   .     S
C268   N269    1.357   .     A
C268   N273    1.359   .     A
N269   N270    1.332   .     A
N270   C271    1.359   .     A
C271   N272    1.357   .     A
C271   C274    1.480   .     S
N272   N273    1.331   .     A
C274   C275    1.408   .     A
C274   C279    1.402   .     A
C275   C276    1.404   .     A
C275   H284    1.083   .     S
C276   C277    1.351   1_455 D
C276   H285    1.083   1_455 S
C277   C276    1.351   1_655 D
C277   C278    1.406   1_655 A
C278   C279    1.393   .     A
C278   H286    1.083   .     S
C278   C277    1.406   1_455 A
C279   H287    1.083   .     S
H285   C276    1.083   1_655 S
C288   C289    1.405   .     A
C288   C293    1.411   .     A
C288   C294    1.487   1_545 S
C289   C290    1.393   .     A
C289   H306    1.082   .     S
C290   C291    1.403   .     A
C290   H307    1.084   .     S
C291   C292    1.403   .     A
C292   C293    1.404   .     A
C292   H308    1.084   .     S
C293   H309    1.082   1_655 S
C294   N299    1.358   .     A
C294   C288    1.487   1_565 S
C294   N295    1.357   1_655 A
N295   N296    1.336   .     A
N295   C294    1.357   1_455 A
N296   C297    1.359   .     A
C297   C300    1.487   .     S
C297   N298    1.356   1_455 A
N298   N299    1.335   .     A
N298   C297    1.356   1_655 A
C300   C305    1.404   .     A
C300   C301    1.410   1_455 A
C301   H310    1.083   .     S
C301   C300    1.410   1_655 A
C301   C302    1.404   1_655 A
C302   C303    1.403   .     A
C302   C301    1.404   1_455 A
C302   H311    1.083   1_455 S
C303   C304    1.405   .     A
C304   C305    1.394   .     A
C304   H312    1.083   .     S
C305   H313    1.083   .     S
H309   C293    1.082   1_455 S
H311   C302    1.083   1_655 S
C314   C315    1.409   .     A
C314   C319    1.406   .     A
C314   C320    1.484   .     S
C315   C316    1.402   .     A
C315   H332    1.083   .     S
C316   C317    1.402   .     A
C316   H333    1.083   .     S
C317   C318    1.401   .     A
C318   C319    1.393   .     A
C318   H334    1.084   .     S
C319   H335    1.083   .     S
C320   N321    1.358   .     A
C320   N325    1.359   1_455 A
N321   N322    1.330   .     A
N322   C323    1.357   1_455 A
C323   N324    1.360   .     A
C323   C326    1.484   .     S
C323   N322    1.357   1_655 A
N324   N325    1.334   .     A
N325   C320    1.359   1_655 A
C326   C327    1.408   .     A
C326   C331    1.407   .     A
C327   C328    1.402   .     A
C327   H336    1.082   .     S
C328   C329    1.403   .     A
C328   H337    1.083   .     S
C329   C330    1.401   .     A
C330   C331    1.394   .     A
C330   H338    1.084   .     S
C331   H339    1.083   .     S
C340   C341    1.409   .     A
C340   C345    1.404   .     A
C340   C346    1.484   .     S
C341   C342    1.409   .     A
C341   H358    1.083   .     S
C342   C343    1.409   .     A
C342   H359    1.083   .     S
C343   C344    1.405   .     A
C344   C345    1.390   .     A
C344   H360    1.084   .     S
C345   H361    1.083   .     S
C346   N347    1.357   .     A
C346   N351    1.360   1_554 A
N347   N348    1.328   1_554 A
N348   C349    1.356   .     A
N348   N347    1.328   1_556 A
C349   N350    1.362   .     A
C349   C352    1.485   .     S
N350   N351    1.337   .     A
N351   C346    1.360   1_556 A
C352   C353    1.407   .     A
C352   C357    1.408   .     A
C353   C354    1.403   .     A
C353   H362    1.083   .     S
C354   H363    1.083   .     S
C354   C355    1.405   1_655 A
C355   C356    1.402   .     A
C355   C354    1.405   1_455 A
C356   H364    1.083   .     S
C356   C357    1.394   1_455 A
C357   H365    1.083   .     S
C357   C356    1.394   1_655 A
C366   C367    1.405   .     A
C366   C371    1.406   .     A
C366   C372    1.480   .     S
C367   C368    1.397   .     A
C367   H384    1.083   .     S
C368   C369    1.404   .     A
C368   H385    1.083   .     S
C369   C370    1.403   .     A
C370   C371    1.397   .     A
C370   H386    1.083   .     S
C371   H387    1.083   .     S
C372   N373    1.357   .     A
C372   N377    1.358   .     A
N373   N374    1.332   .     A
N374   C375    1.357   .     A
C375   N376    1.359   .     A
C375   C378    1.481   .     S
N376   N377    1.335   .     A
C378   C379    1.405   .     A
C378   C383    1.407   .     A
C379   C380    1.398   .     A
C379   H388    1.083   .     S
C380   C381    1.405   .     A
C380   H389    1.083   .     S
C381   C382    1.403   .     A
C382   C383    1.399   .     A
C382   H390    1.083   .     S
C383   H391    1.083   .     S
