data_lcy+N139+E28
_audit_creation_date              2025-01-21
_audit_creation_method            'Materials Studio'
_symmetry_space_group_name_H-M    'P1'
_symmetry_Int_Tables_number       1
_symmetry_cell_setting            triclinic
loop_
_symmetry_equiv_pos_as_xyz
  x,y,z
_cell_length_a                    33.0661
_cell_length_b                    33.2746
_cell_length_c                    31.6753
_cell_angle_alpha                 91.3530
_cell_angle_beta                  93.3527
_cell_angle_gamma                 83.8753
loop_
_atom_site_label
_atom_site_type_symbol
_atom_site_fract_x
_atom_site_fract_y
_atom_site_fract_z
_atom_site_U_iso_or_equiv
_atom_site_adp_type
_atom_site_occupancy
C0     C     0.05418   0.55091   0.82967   0.00000  Uiso   1.00
Sm1    Sm    0.13222   0.65372   0.88288   0.00000  Uiso   1.00
Sm2    Sm    0.11136   0.60231   0.84407   0.00000  Uiso   1.00
C3     C     0.15656   0.57197   0.92691   0.00000  Uiso   1.00
C4     C     0.16141   0.57653   0.78263   0.00000  Uiso   1.00
O5     O     0.19567   0.67051   0.87610   0.00000  Uiso   1.00
O6     O     0.16125   0.70166   0.92299   0.00000  Uiso   1.00
O7     O     0.07680   0.64839   0.79994   0.00000  Uiso   1.00
O8     O     0.10756   0.69684   0.83274   0.00000  Uiso   1.00
O9     O     0.06802   0.65042   0.90058   0.00000  Uiso   1.00
O10    O     0.09952   0.69581   0.93073   0.00000  Uiso   1.00
O11    O     0.05308   0.57713   0.85933   0.00000  Uiso   1.00
O12    O     0.08449   0.55182   0.80702   0.00000  Uiso   1.00
O13    O     0.15442   0.60992   0.93329   0.00000  Uiso   1.00
O14    O     0.14512   0.55817   0.89078   0.00000  Uiso   1.00
O15    O     0.16779   0.60574   0.80766   0.00000  Uiso   1.00
O16    O     0.12933   0.56056   0.78968   0.00000  Uiso   1.00
C17    C     0.19509   0.69642   0.90579   0.00000  Uiso   1.00
C18    C     0.08215   0.68575   0.80424   0.00000  Uiso   1.00
C19    C     0.06615   0.68032   0.92575   0.00000  Uiso   1.00
C20    C     0.58667   0.79311   0.21068   0.00000  Uiso   1.00
Sm21   Sm    0.66328   0.92359   0.08910   0.00000  Uiso   1.00
Sm22   Sm    0.61126   0.82958   0.14509   0.00000  Uiso   1.00
C23    C     0.68244   0.83520   0.07985   0.00000  Uiso   1.00
C24    C     0.57032   0.80586   0.07658   0.00000  Uiso   1.00
O25    O     0.64940   0.95483   0.02771   0.00000  Uiso   1.00
O26    O     0.71231   0.93727   0.04815   0.00000  Uiso   1.00
O27    O     0.61440   0.88944   0.18012   0.00000  Uiso   1.00
O28    O     0.60450   0.91827   0.11890   0.00000  Uiso   1.00
O29    O     0.69827   0.90813   0.14934   0.00000  Uiso   1.00
O30    O     0.68049   0.97121   0.13607   0.00000  Uiso   1.00
O31    O     0.62426   0.79252   0.20290   0.00000  Uiso   1.00
O32    O     0.56208   0.81535   0.18604   0.00000  Uiso   1.00
O33    O     0.66005   0.86239   0.05958   0.00000  Uiso   1.00
O34    O     0.67300   0.82429   0.11607   0.00000  Uiso   1.00
O35    O     0.57324   0.84320   0.08551   0.00000  Uiso   1.00
O36    O     0.59185   0.78103   0.10123   0.00000  Uiso   1.00
C37    C     0.68712   0.95386   0.01975   0.00000  Uiso   1.00
C38    C     0.60575   0.92142   0.15881   0.00000  Uiso   1.00
C39    C     0.69803   0.94489   0.16213   0.00000  Uiso   1.00
C40    C     0.86271   0.06500   0.55567   0.00000  Uiso   1.00
Sm41   Sm    0.94570   0.12967   0.66876   0.00000  Uiso   1.00
Sm42   Sm    0.89514   0.12864   0.59076   0.00000  Uiso   1.00
C43    C     0.96201   0.18193   0.58794   0.00000  Uiso   1.00
C44    C     0.83882   0.19216   0.57609   0.00000  Uiso   1.00
O45    O     0.89995   0.17228   0.70355   0.00000  Uiso   1.00
O46    O     0.96230   0.17239   0.72177   0.00000  Uiso   1.00
O47    O     0.85023   0.10438   0.63123   0.00000  Uiso   1.00
O48    O     0.87730   0.14354   0.68052   0.00000  Uiso   1.00
O49    O     0.93107   0.07299   0.63469   0.00000  Uiso   1.00
O50    O     0.93679   0.07398   0.70302   0.00000  Uiso   1.00
O51    O     0.89765   0.07447   0.54754   0.00000  Uiso   1.00
O52    O     0.84619   0.08605   0.58568   0.00000  Uiso   1.00
O53    O     0.95673   0.18216   0.62748   0.00000  Uiso   1.00
O54    O     0.94371   0.15865   0.56317   0.00000  Uiso   1.00
O55    O     0.86065   0.18825   0.61012   0.00000  Uiso   1.00
O56    O     0.84830   0.16505   0.54884   0.00000  Uiso   1.00
C57    C     0.92665   0.18890   0.72628   0.00000  Uiso   1.00
C58    C     0.84997   0.12016   0.66835   0.00000  Uiso   1.00
C59    C     0.93029   0.05351   0.66900   0.00000  Uiso   1.00
C60    C     0.35648   0.39257   0.29086   0.00000  Uiso   1.00
Sm61   Sm    0.38263   0.32272   0.39040   0.00000  Uiso   1.00
Sm62   Sm    0.40978   0.37497   0.35716   0.00000  Uiso   1.00
C63    C     0.45932   0.29686   0.33745   0.00000  Uiso   1.00
C64    C     0.45534   0.43522   0.34254   0.00000  Uiso   1.00
O65    O     0.41295   0.33095   0.45670   0.00000  Uiso   1.00
O66    O     0.43688   0.28269   0.41873   0.00000  Uiso   1.00
O67    O     0.37376   0.41761   0.40061   0.00000  Uiso   1.00
O68    O     0.39254   0.36818   0.44387   0.00000  Uiso   1.00
O69    O     0.31817   0.34217   0.40695   0.00000  Uiso   1.00
O70    O     0.34399   0.28317   0.42375   0.00000  Uiso   1.00
O71    O     0.35368   0.36338   0.31522   0.00000  Uiso   1.00
O72    O     0.38668   0.41196   0.30068   0.00000  Uiso   1.00
O73    O     0.44326   0.28999   0.37195   0.00000  Uiso   1.00
O74    O     0.44821   0.32989   0.31857   0.00000  Uiso   1.00
O75    O     0.46360   0.41118   0.37315   0.00000  Uiso   1.00
O76    O     0.42492   0.42676   0.31914   0.00000  Uiso   1.00
C77    C     0.44001   0.30112   0.45401   0.00000  Uiso   1.00
C78    C     0.37805   0.40498   0.43829   0.00000  Uiso   1.00
C79    C     0.31297   0.30913   0.42393   0.00000  Uiso   1.00
C80    C     0.46992   0.77068   0.99864   0.00000  Uiso   1.00
C81    C     0.48148   0.80995   0.99585   0.00000  Uiso   1.00
C82    C     0.51640   0.82084   1.01862   0.00000  Uiso   1.00
C83    C     0.54055   0.79250   0.04403   0.00000  Uiso   1.00
C84    C     0.53111   0.75234   0.04348   0.00000  Uiso   1.00
C85    C     0.49604   0.74159   0.02120   0.00000  Uiso   1.00
C86    C     0.42896   0.76109   0.98255   0.00000  Uiso   1.00
N87    N     0.41091   0.73183   1.00115   0.00000  Uiso   1.00
N88    N     0.37296   0.72479   0.98939   0.00000  Uiso   1.00
C89    C     0.35142   0.74659   0.95835   0.00000  Uiso   1.00
N90    N     0.36958   0.77556   0.93924   0.00000  Uiso   1.00
N91    N     0.40747   0.78293   0.95138   0.00000  Uiso   1.00
C92    C     0.30919   0.73841   0.94569   0.00000  Uiso   1.00
C93    C     0.29350   0.74395   0.90379   0.00000  Uiso   1.00
C94    C     0.25525   0.73194   0.89108   0.00000  Uiso   1.00
C95    C     0.23152   0.71567   0.92036   0.00000  Uiso   1.00
C96    C     0.24613   0.71216   0.96268   0.00000  Uiso   1.00
C97    C     0.28489   0.72290   0.97513   0.00000  Uiso   1.00
H98    H     0.46218   0.83295   0.97840   0.00000  Uiso   1.00
H99    H     0.52311   0.85198   1.01840   0.00000  Uiso   1.00
H100   H     0.54919   0.72981   0.06268   0.00000  Uiso   1.00
H101   H     0.48841   0.71085   0.02315   0.00000  Uiso   1.00
H102   H     0.31160   0.75570   0.88043   0.00000  Uiso   1.00
H103   H     0.24454   0.73444   0.85818   0.00000  Uiso   1.00
H104   H     0.22865   0.69881   0.98552   0.00000  Uiso   1.00
H105   H     0.29623   0.71832   1.00765   0.00000  Uiso   1.00
C106   C     0.53243   0.19536   0.28576   0.00000  Uiso   1.00
C107   C     0.52907   0.20006   0.32963   0.00000  Uiso   1.00
C108   C     0.50754   0.23449   0.34648   0.00000  Uiso   1.00
C109   C     0.48898   0.26526   0.31999   0.00000  Uiso   1.00
C110   C     0.49493   0.26224   0.27647   0.00000  Uiso   1.00
C111   C     0.51643   0.22754   0.25947   0.00000  Uiso   1.00
C112   C     0.54910   0.15585   0.26755   0.00000  Uiso   1.00
N113   N     0.54891   0.14966   0.22502   0.00000  Uiso   1.00
N114   N     0.56049   0.11328   0.20871   0.00000  Uiso   1.00
C115   C     0.57268   0.08134   0.23411   0.00000  Uiso   1.00
N116   N     0.57327   0.08759   0.27666   0.00000  Uiso   1.00
N117   N     0.56169   0.12401   0.29299   0.00000  Uiso   1.00
C118   C     0.58332   0.04037   0.21554   0.00000  Uiso   1.00
C119   C     0.59417   0.00645   0.24125   0.00000  Uiso   1.00
C120   C     0.60184   0.96766   0.22314   0.00000  Uiso   1.00
C121   C     0.59908   0.96211   0.17901   0.00000  Uiso   1.00
C122   C     0.58903   0.99613   0.15347   0.00000  Uiso   1.00
C123   C     0.58147   0.03466   0.17143   0.00000  Uiso   1.00
H124   H     0.54145   0.17632   0.35097   0.00000  Uiso   1.00
H125   H     0.50391   0.23623   0.38023   0.00000  Uiso   1.00
H126   H     0.48093   0.28549   0.25532   0.00000  Uiso   1.00
H127   H     0.51893   0.22521   0.22556   0.00000  Uiso   1.00
H128   H     0.59630   0.00975   0.27536   0.00000  Uiso   1.00
H129   H     0.60972   0.94205   0.24359   0.00000  Uiso   1.00
H130   H     0.58678   0.99303   0.11932   0.00000  Uiso   1.00
H131   H     0.57357   0.05994   0.15056   0.00000  Uiso   1.00
C132   C     0.72297   0.26011   0.55766   0.00000  Uiso   1.00
C133   C     0.74687   0.24934   0.52298   0.00000  Uiso   1.00
C134   C     0.78623   0.23005   0.52915   0.00000  Uiso   1.00
C135   C     0.80284   0.22188   0.57011   0.00000  Uiso   1.00
C136   C     0.78072   0.23606   0.60497   0.00000  Uiso   1.00
C137   C     0.74093   0.25493   0.59880   0.00000  Uiso   1.00
C138   C     0.67861   0.27161   0.55027   0.00000  Uiso   1.00
N139   N     0.65321   0.27645   0.58278   0.00000  Uiso   1.00
N140   N     0.61283   0.28154   0.57525   0.00000  Uiso   1.00
C141   C     0.59659   0.28159   0.53489   0.00000  Uiso   1.00
N142   N     0.62188   0.27755   0.50257   0.00000  Uiso   1.00
N143   N     0.66199   0.27273   0.51009   0.00000  Uiso   1.00
C144   C     0.55268   0.28251   0.52504   0.00000  Uiso   1.00
C145   C     0.52596   0.31693   0.53383   0.00000  Uiso   1.00
C146   C     0.48689   0.32175   0.51363   0.00000  Uiso   1.00
C147   C     0.47461   0.29203   0.48472   0.00000  Uiso   1.00
C148   C     0.50001   0.25602   0.47952   0.00000  Uiso   1.00
C149   C     0.53882   0.25142   0.49932   0.00000  Uiso   1.00
H150   H     0.73437   0.25343   0.49083   0.00000  Uiso   1.00
H151   H     0.80281   0.21949   0.50180   0.00000  Uiso   1.00
H152   H     0.79299   0.22977   0.63689   0.00000  Uiso   1.00
H153   H     0.72360   0.26326   0.62621   0.00000  Uiso   1.00
H154   H     0.53639   0.34139   0.55329   0.00000  Uiso   1.00
H155   H     0.46778   0.34998   0.51781   0.00000  Uiso   1.00
H156   H     0.49101   0.23264   0.45763   0.00000  Uiso   1.00
H157   H     0.55908   0.22466   0.49226   0.00000  Uiso   1.00
C158   C     0.77824   0.08020   0.76440   0.00000  Uiso   1.00
C159   C     0.77642   0.06228   0.72378   0.00000  Uiso   1.00
C160   C     0.79754   0.07699   0.69125   0.00000  Uiso   1.00
C161   C     0.82033   0.11009   0.69877   0.00000  Uiso   1.00
C162   C     0.81929   0.12976   0.73850   0.00000  Uiso   1.00
C163   C     0.79854   0.11497   0.77088   0.00000  Uiso   1.00
C164   C     0.76311   0.06092   0.80117   0.00000  Uiso   1.00
N165   N     0.78111   0.06628   0.84023   0.00000  Uiso   1.00
N166   N     0.76956   0.04777   0.87358   0.00000  Uiso   1.00
C167   C     0.73932   1.02323   0.86932   0.00000  Uiso   1.00
N168   N     0.72099   1.01798   0.83030   0.00000  Uiso   1.00
N169   N     0.73289   1.03621   0.79674   0.00000  Uiso   1.00
C170   C     0.72635   1.00351   0.90686   0.00000  Uiso   1.00
C171   C     0.68582   0.99523   0.90925   0.00000  Uiso   1.00
C172   C     0.67294   0.97945   0.94614   0.00000  Uiso   1.00
C173   C     0.70065   0.97058   0.98081   0.00000  Uiso   1.00
C174   C     0.74150   0.97770   0.97795   0.00000  Uiso   1.00
C175   C     0.75417   0.99432   0.94144   0.00000  Uiso   1.00
H176   H     0.76095   0.03542   0.71791   0.00000  Uiso   1.00
H177   H     0.79798   0.06101   0.66107   0.00000  Uiso   1.00
H178   H     0.83619   0.15547   0.74543   0.00000  Uiso   1.00
H179   H     0.79984   0.12981   0.80166   0.00000  Uiso   1.00
H180   H     0.66386   1.00193   0.88300   0.00000  Uiso   1.00
H181   H     0.64133   0.97403   0.94749   0.00000  Uiso   1.00
H182   H     0.76355   0.97096   0.00416   0.00000  Uiso   1.00
H183   H     0.78578   0.99984   0.94019   0.00000  Uiso   1.00
C184   C     0.80298   1.00144   0.45711   0.00000  Uiso   1.00
C185   C     0.84472   0.99112   0.46725   0.00000  Uiso   1.00
C186   C     0.86384   1.00893   0.50235   0.00000  Uiso   1.00
C187   C     0.84142   0.03655   0.52844   0.00000  Uiso   1.00
C188   C     0.79896   0.04318   0.52124   0.00000  Uiso   1.00
C189   C     0.77989   0.02591   0.48568   0.00000  Uiso   1.00
C190   C     0.78507   0.99092   0.41476   0.00000  Uiso   1.00
N191   N     0.75149   0.01331   0.39781   0.00000  Uiso   1.00
N192   N     0.73776   1.00668   0.35806   0.00000  Uiso   1.00
C193   C     0.75704   0.97736   0.33368   0.00000  Uiso   1.00
N194   N     0.79032   0.95471   0.35081   0.00000  Uiso   1.00
N195   N     0.80422   0.96153   0.39041   0.00000  Uiso   1.00
C196   C     0.74239   0.97010   0.28920   0.00000  Uiso   1.00
C197   C     0.75552   0.93373   0.26833   0.00000  Uiso   1.00
C198   C     0.74155   0.92611   0.22680   0.00000  Uiso   1.00
C199   C     0.71490   0.95502   0.20473   0.00000  Uiso   1.00
C200   C     0.70234   0.99181   0.22502   0.00000  Uiso   1.00
C201   C     0.71556   0.99912   0.26711   0.00000  Uiso   1.00
H202   H     0.86329   0.97170   0.44642   0.00000  Uiso   1.00
H203   H     0.89661   1.00329   0.50744   0.00000  Uiso   1.00
H204   H     0.78099   0.06451   0.54083   0.00000  Uiso   1.00
H205   H     0.74746   0.03348   0.47930   0.00000  Uiso   1.00
H206   H     0.77605   0.91070   0.28439   0.00000  Uiso   1.00
H207   H     0.75143   0.89731   0.21205   0.00000  Uiso   1.00
H208   H     0.68135   1.01432   0.20880   0.00000  Uiso   1.00
H209   H     0.70481   1.02745   0.28230   0.00000  Uiso   1.00
C210   C     0.32977   0.47099   0.54535   0.00000  Uiso   1.00
C211   C     0.35218   0.43300   0.55006   0.00000  Uiso   1.00
C212   C     0.36993   0.41302   0.51562   0.00000  Uiso   1.00
C213   C     0.36516   0.43017   0.47526   0.00000  Uiso   1.00
C214   C     0.34476   0.46927   0.47082   0.00000  Uiso   1.00
C215   C     0.32743   0.48971   0.50580   0.00000  Uiso   1.00
C216   C     0.30648   0.48861   0.58098   0.00000  Uiso   1.00
N217   N     0.29702   0.52916   0.58584   0.00000  Uiso   1.00
N218   N     0.27541   0.54406   0.61807   0.00000  Uiso   1.00
C219   C     0.26211   0.51892   0.64628   0.00000  Uiso   1.00
N220   N     0.27147   0.47849   0.64114   0.00000  Uiso   1.00
N221   N     0.29331   0.46369   0.60933   0.00000  Uiso   1.00
C222   C     0.23682   0.53448   0.68130   0.00000  Uiso   1.00
C223   C     0.20973   0.50981   0.69760   0.00000  Uiso   1.00
C224   C     0.18533   0.52373   0.73042   0.00000  Uiso   1.00
C225   C     0.18808   0.56230   0.74840   0.00000  Uiso   1.00
C226   C     0.21559   0.58695   0.73275   0.00000  Uiso   1.00
C227   C     0.23948   0.57330   0.69904   0.00000  Uiso   1.00
H228   H     0.35504   0.41806   0.58027   0.00000  Uiso   1.00
H229   H     0.38595   0.38322   0.52042   0.00000  Uiso   1.00
H230   H     0.34084   0.48330   0.44014   0.00000  Uiso   1.00
H231   H     0.31039   0.51910   0.50141   0.00000  Uiso   1.00
H232   H     0.20696   0.47980   0.68455   0.00000  Uiso   1.00
H233   H     0.16440   0.50415   0.74195   0.00000  Uiso   1.00
H234   H     0.21816   0.61691   0.74611   0.00000  Uiso   1.00
H235   H     0.26038   0.59277   0.68729   0.00000  Uiso   1.00
C236   C     0.19847   0.49947   0.03477   0.00000  Uiso   1.00
C237   C     0.20371   0.48308   0.99371   0.00000  Uiso   1.00
C238   C     0.18936   0.50587   0.95790   0.00000  Uiso   1.00
C239   C     0.17036   0.54543   0.96288   0.00000  Uiso   1.00
C240   C     0.16448   0.56102   1.00383   0.00000  Uiso   1.00
C241   C     0.17789   0.53836   0.03909   0.00000  Uiso   1.00
C242   C     0.21643   0.47865   0.07354   0.00000  Uiso   1.00
N243   N     0.21506   0.49893   0.11120   0.00000  Uiso   1.00
N244   N     0.23403   0.48303   0.14596   0.00000  Uiso   1.00
C245   C     0.25510   0.44587   0.14482   0.00000  Uiso   1.00
N246   N     0.25578   0.42481   0.10744   0.00000  Uiso   1.00
N247   N     0.23691   0.44097   0.07238   0.00000  Uiso   1.00
C248   C     0.27944   0.43089   0.18296   0.00000  Uiso   1.00
C249   C     0.28887   0.38935   0.19040   0.00000  Uiso   1.00
C250   C     0.31261   0.37627   0.22669   0.00000  Uiso   1.00
C251   C     0.32791   0.40467   0.25513   0.00000  Uiso   1.00
C252   C     0.31853   0.44600   0.24761   0.00000  Uiso   1.00
C253   C     0.29412   0.45900   0.21227   0.00000  Uiso   1.00
H254   H     0.21967   0.45326   0.98925   0.00000  Uiso   1.00
H255   H     0.19435   0.49324   0.92658   0.00000  Uiso   1.00
H256   H     0.14956   0.59120   1.00882   0.00000  Uiso   1.00
H257   H     0.17291   0.55206   0.06995   0.00000  Uiso   1.00
H258   H     0.27795   0.36716   0.16824   0.00000  Uiso   1.00
H259   H     0.32026   0.34422   0.23171   0.00000  Uiso   1.00
H260   H     0.33035   0.46834   0.26911   0.00000  Uiso   1.00
H261   H     0.28776   0.49121   0.20731   0.00000  Uiso   1.00
C262   C     0.20063   0.28630   0.47504   0.00000  Uiso   1.00
C263   C     0.23719   0.26299   0.48737   0.00000  Uiso   1.00
C264   C     0.27375   0.27031   0.47058   0.00000  Uiso   1.00
C265   C     0.27448   0.30154   0.44177   0.00000  Uiso   1.00
C266   C     0.23804   0.32506   0.42962   0.00000  Uiso   1.00
C267   C     0.20127   0.31713   0.44568   0.00000  Uiso   1.00
C268   C     0.16215   0.27804   0.49271   0.00000  Uiso   1.00
N269   N     0.12597   0.28554   0.47021   0.00000  Uiso   1.00
N270   N     0.09159   0.27609   0.48564   0.00000  Uiso   1.00
C271   C     0.09211   0.25933   0.52437   0.00000  Uiso   1.00
N272   N     0.12820   0.25246   0.54705   0.00000  Uiso   1.00
N273   N     0.16254   0.26151   0.53148   0.00000  Uiso   1.00
C274   C     0.05504   0.24569   0.54054   0.00000  Uiso   1.00
C275   C     0.05213   0.24173   0.58423   0.00000  Uiso   1.00
C276   C     1.02016   0.22335   0.59966   0.00000  Uiso   1.00
C277   C     0.99085   0.20792   0.57165   0.00000  Uiso   1.00
C278   C     0.99253   0.21375   0.52802   0.00000  Uiso   1.00
C279   C     1.02419   0.23291   0.51261   0.00000  Uiso   1.00
H280   H     0.23739   0.23862   0.50948   0.00000  Uiso   1.00
H281   H     0.30149   0.25171   0.48032   0.00000  Uiso   1.00
H282   H     0.23791   0.34912   0.40715   0.00000  Uiso   1.00
H283   H     0.17346   0.33539   0.43556   0.00000  Uiso   1.00
H284   H     0.07538   0.25158   0.60644   0.00000  Uiso   1.00
H285   H     1.01971   0.21928   0.63345   0.00000  Uiso   1.00
H286   H     0.97020   0.20231   0.50578   0.00000  Uiso   1.00
H287   H     1.02585   0.23551   0.47875   0.00000  Uiso   1.00
C288   C     0.92777   0.92620   0.67996   0.00000  Uiso   1.00
C289   C     0.93890   0.94211   0.64204   0.00000  Uiso   1.00
C290   C     0.93667   0.98400   0.63691   0.00000  Uiso   1.00
C291   C     0.92385   0.01045   0.66981   0.00000  Uiso   1.00
C292   C     0.90912   0.99475   0.70588   0.00000  Uiso   1.00
C293   C     0.91071   0.95305   0.71075   0.00000  Uiso   1.00
C294   C     0.93982   0.88324   0.69073   0.00000  Uiso   1.00
N295   N     0.93271   0.87003   0.72955   0.00000  Uiso   1.00
N296   N     0.95062   0.83482   0.74355   0.00000  Uiso   1.00
C297   C     0.97623   0.81107   0.71924   0.00000  Uiso   1.00
N298   N     0.98197   0.82315   0.67958   0.00000  Uiso   1.00
N299   N     0.96411   0.85862   0.66562   0.00000  Uiso   1.00
C300   C     0.00324   0.77789   0.73907   0.00000  Uiso   1.00
C301   C     0.01177   0.73999   0.71914   0.00000  Uiso   1.00
C302   C     0.03785   0.70944   0.73975   0.00000  Uiso   1.00
C303   C     0.05666   0.71719   0.77969   0.00000  Uiso   1.00
C304   C     0.04874   0.75558   0.79864   0.00000  Uiso   1.00
C305   C     0.02214   0.78534   0.77879   0.00000  Uiso   1.00
H306   H     0.95162   0.92237   0.61741   0.00000  Uiso   1.00
H307   H     0.94775   0.99566   0.60863   0.00000  Uiso   1.00
H308   H     0.89807   0.01469   0.73122   0.00000  Uiso   1.00
H309   H     0.90116   0.94197   0.74005   0.00000  Uiso   1.00
H310   H    -0.00234   0.73382   0.68827   0.00000  Uiso   1.00
H311   H     0.04343   0.68004   0.72457   0.00000  Uiso   1.00
H312   H     0.06233   0.76240   0.82958   0.00000  Uiso   1.00
H313   H     0.01668   0.81460   0.79439   0.00000  Uiso   1.00
C314   C     0.97404   0.45810   0.81164   0.00000  Uiso   1.00
C315   C     0.97648   0.47915   0.85050   0.00000  Uiso   1.00
C316   C     1.00106   0.51088   0.85590   0.00000  Uiso   1.00
C317   C     0.02420   0.52131   0.82276   0.00000  Uiso   1.00
C318   C     0.02029   0.50145   0.78342   0.00000  Uiso   1.00
C319   C     0.99497   0.47052   0.77771   0.00000  Uiso   1.00
C320   C     0.95301   0.42114   0.80720   0.00000  Uiso   1.00
N321   N     0.93464   0.41116   0.76955   0.00000  Uiso   1.00
N322   N     0.92059   0.37527   0.76366   0.00000  Uiso   1.00
C323   C     0.92473   0.34776   0.79501   0.00000  Uiso   1.00
N324   N     0.94242   0.35804   0.83299   0.00000  Uiso   1.00
N325   N     0.95603   0.39417   0.83906   0.00000  Uiso   1.00
C326   C     0.91725   0.30545   0.78508   0.00000  Uiso   1.00
C327   C     0.94349   0.27374   0.80329   0.00000  Uiso   1.00
C328   C     0.94450   0.23468   0.78596   0.00000  Uiso   1.00
C329   C     0.91825   0.22636   0.75126   0.00000  Uiso   1.00
C330   C     0.88916   0.25710   0.73570   0.00000  Uiso   1.00
C331   C     0.88890   0.29652   0.75227   0.00000  Uiso   1.00
H332   H     0.95967   0.47074   0.87670   0.00000  Uiso   1.00
H333   H     1.00325   0.52610   0.88643   0.00000  Uiso   1.00
H334   H     0.03742   0.50939   0.75729   0.00000  Uiso   1.00
H335   H     0.99321   0.45509   0.74726   0.00000  Uiso   1.00
H336   H     0.96579   0.27976   0.82842   0.00000  Uiso   1.00
H337   H     0.96736   0.21146   0.79810   0.00000  Uiso   1.00
H338   H     0.86908   0.25151   0.70840   0.00000  Uiso   1.00
H339   H     0.86824   0.32046   0.73780   0.00000  Uiso   1.00
C340   C     0.79973   0.79176   0.03475   0.00000  Uiso   1.00
C341   C     0.79145   0.78727   0.07725   0.00000  Uiso   1.00
C342   C     0.75321   0.80092   0.09170   0.00000  Uiso   1.00
C343   C     0.72259   0.81998   0.06411   0.00000  Uiso   1.00
C344   C     0.73107   0.82513   0.02174   0.00000  Uiso   1.00
C345   C     0.76916   0.81081   1.00709   0.00000  Uiso   1.00
C346   C     0.83984   0.77591   1.01944   0.00000  Uiso   1.00
N347   N     0.84366   0.76445   0.97832   0.00000  Uiso   1.00
N348   N     0.87959   0.74913   0.96484   0.00000  Uiso   1.00
C349   C     0.91324   0.74498   0.99178   0.00000  Uiso   1.00
N350   N     0.90950   0.75667   0.03284   0.00000  Uiso   1.00
N351   N     0.87346   0.77160   0.04643   0.00000  Uiso   1.00
C352   C     0.95290   0.72767   0.97656   0.00000  Uiso   1.00
C353   C     0.98985   0.73847   0.99559   0.00000  Uiso   1.00
C354   C     0.02714   0.72317   0.97942   0.00000  Uiso   1.00
C355   C     0.02788   0.69606   0.94477   0.00000  Uiso   1.00
C356   C     0.99099   0.68476   0.92646   0.00000  Uiso   1.00
C357   C     0.95393   0.70070   0.94185   0.00000  Uiso   1.00
H358   H     0.81443   0.77269   0.09923   0.00000  Uiso   1.00
H359   H     0.74782   0.79695   0.12467   0.00000  Uiso   1.00
H360   H     0.70818   0.84006  -0.00011   0.00000  Uiso   1.00
H361   H     0.77485   0.81512   0.97425   0.00000  Uiso   1.00
H362   H     0.98983   0.75942   1.02229   0.00000  Uiso   1.00
H363   H     0.05522   0.73255   0.99382   0.00000  Uiso   1.00
H364   H     0.99070   0.66425   0.89940   0.00000  Uiso   1.00
H365   H     0.92602   0.69173   0.92664   0.00000  Uiso   1.00
C366   C     0.54709   0.70232   0.28706   0.00000  Uiso   1.00
C367   C     0.51835   0.73041   0.26614   0.00000  Uiso   1.00
C368   C     0.53105   0.76208   0.24378   0.00000  Uiso   1.00
C369   C     0.57265   0.76665   0.24243   0.00000  Uiso   1.00
C370   C     0.60104   0.74097   0.26669   0.00000  Uiso   1.00
C371   C     0.58835   0.70916   0.28894   0.00000  Uiso   1.00
C372   C     0.53463   0.66358   0.30132   0.00000  Uiso   1.00
N373   N     0.56055   0.63742   0.32507   0.00000  Uiso   1.00
N374   N     0.55068   0.60064   0.33339   0.00000  Uiso   1.00
C375   C     0.51475   0.58850   0.31773   0.00000  Uiso   1.00
N376   N     0.48876   0.61482   0.29454   0.00000  Uiso   1.00
N377   N     0.49845   0.65154   0.28656   0.00000  Uiso   1.00
C378   C     0.50422   0.54700   0.32344   0.00000  Uiso   1.00
C379   C     0.47954   0.52988   0.29190   0.00000  Uiso   1.00
C380   C     0.46577   0.49248   0.29759   0.00000  Uiso   1.00
C381   C     0.47615   0.47121   0.33507   0.00000  Uiso   1.00
C382   C     0.50246   0.48719   0.36603   0.00000  Uiso   1.00
C383   C     0.51672   0.52486   0.36010   0.00000  Uiso   1.00
H384   H     0.48619   0.72650   0.26485   0.00000  Uiso   1.00
H385   H     0.50849   0.78124   0.22523   0.00000  Uiso   1.00
H386   H     0.63332   0.74384   0.26629   0.00000  Uiso   1.00
H387   H     0.61121   0.68826   0.30499   0.00000  Uiso   1.00
H388   H     0.47024   0.54581   0.26291   0.00000  Uiso   1.00
H389   H     0.44575   0.48082   0.27304   0.00000  Uiso   1.00
H390   H     0.51054   0.47144   0.39536   0.00000  Uiso   1.00
H391   H     0.53594   0.53739   0.38481   0.00000  Uiso   1.00
loop_
_geom_bond_atom_site_label_1
_geom_bond_atom_site_label_2
_geom_bond_distance
_geom_bond_site_symmetry_2
_ccdc_geom_bond_type
C0     O11     1.266   .     A
C0     O12     1.269   .     A
C0     C317    1.474   .     S
Sm1    O5      2.251   .     S
Sm1    O6      2.273   .     S
Sm1    O8      2.225   .     S
Sm1    O9      2.242   .     S
Sm1    O10     2.280   .     S
Sm1    O13     2.226   .     S
Sm2    O7      2.270   .     S
Sm2    O11     2.263   .     S
Sm2    O12     2.257   .     S
Sm2    O14     2.270   .     S
Sm2    O15     2.264   .     S
Sm2    O16     2.254   .     S
C3     O13     1.269   .     A
C3     O14     1.275   .     A
C3     C239    1.479   .     S
C4     O15     1.267   .     A
C4     O16     1.269   .     A
C4     C225    1.475   .     S
O5     C17     1.260   .     A
O6     C17     1.267   .     A
O7     C18     1.277   .     A
O8     C18     1.272   .     A
O9     C19     1.259   .     A
O10    C19     1.267   .     A
C17    C95     1.470   .     S
C18    C303    1.478   .     S
C19    C355    1.474   .     S
C20    O31     1.279   .     A
C20    O32     1.282   .     A
C20    C369    1.478   .     S
Sm21   O25     2.227   .     S
Sm21   O26     2.224   .     S
Sm21   O28     2.235   .     S
Sm21   O29     2.215   .     S
Sm21   O30     2.243   .     S
Sm21   O33     2.231   .     S
Sm22   O27     2.266   .     S
Sm22   O31     2.227   .     S
Sm22   O32     2.234   .     S
Sm22   O34     2.276   .     S
Sm22   O35     2.234   .     S
Sm22   O36     2.228   .     S
C23    O33     1.268   .     A
C23    O34     1.277   .     A
C23    C343    1.480   .     S
C24    O35     1.280   .     A
C24    O36     1.280   .     A
C24    C83     1.478   .     S
O25    C37     1.284   .     A
O26    C37     1.283   .     A
O27    C38     1.271   .     A
O28    C38     1.265   .     A
O29    C39     1.279   .     A
O30    C39     1.286   .     A
C37    C173    1.477   1_554 S
C38    C121    1.484   .     S
C39    C199    1.475   .     S
C40    O51     1.272   .     A
C40    O52     1.281   .     A
C40    C187    1.472   .     S
Sm41   O45     2.275   .     S
Sm41   O46     2.255   .     S
Sm41   O48     2.310   .     S
Sm41   O49     2.235   .     S
Sm41   O50     2.224   .     S
Sm41   O53     2.279   .     S
Sm42   O47     2.242   .     S
Sm42   O51     2.235   .     S
Sm42   O52     2.259   .     S
Sm42   O54     2.211   .     S
Sm42   O55     2.270   .     S
Sm42   O56     2.251   .     S
C43    O53     1.274   .     A
C43    O54     1.264   .     A
C43    C277    1.476   .     S
C44    O55     1.263   .     A
C44    O56     1.262   .     A
C44    C135    1.470   .     S
O45    C57     1.271   .     A
O46    C57     1.261   .     A
O47    C58     1.276   .     A
O48    C58     1.291   .     A
O49    C59     1.282   .     A
O50    C59     1.281   .     A
C57    C329    1.470   .     S
C58    C161    1.482   .     S
C59    C291    1.472   .     S
C60    O71     1.269   .     A
C60    O72     1.266   .     A
C60    C251    1.466   .     S
Sm61   O65     2.297   .     S
Sm61   O66     2.271   .     S
Sm61   O68     2.277   .     S
Sm61   O69     2.249   .     S
Sm61   O70     2.250   .     S
Sm61   O73     2.278   .     S
Sm62   O67     2.250   .     S
Sm62   O71     2.279   .     S
Sm62   O72     2.246   .     S
Sm62   O74     2.247   .     S
Sm62   O75     2.280   .     S
Sm62   O76     2.241   .     S
C63    O73     1.278   .     A
C63    O74     1.273   .     A
C63    C109    1.480   .     S
C64    O75     1.270   .     A
C64    O76     1.267   .     A
C64    C381    1.474   .     S
O65    C77     1.268   .     A
O66    C77     1.266   .     A
O67    C78     1.270   .     A
O68    C78     1.279   .     A
O69    C79     1.267   .     A
O70    C79     1.269   .     A
C77    C147    1.469   .     S
C78    C213    1.480   .     S
C79    C265    1.471   .     S
C80    C81     1.406   .     A
C80    C86     1.483   .     S
C80    C85     1.406   1_556 A
C81    C82     1.402   .     A
C81    H98     1.083   .     S
C82    H99     1.083   .     S
C82    C83     1.405   1_556 A
C83    C84     1.404   .     A
C83    C82     1.405   1_554 A
C84    C85     1.397   .     A
C84    H100    1.083   .     S
C85    H101    1.083   .     S
C85    C80     1.406   1_554 A
C86    N87     1.358   .     A
C86    N91     1.360   .     A
N87    N88     1.331   .     A
N88    C89     1.357   .     A
C89    N90     1.360   .     A
C89    C92     1.482   .     S
N90    N91     1.335   .     A
C92    C93     1.405   .     A
C92    C97     1.407   .     A
C93    C94     1.401   .     A
C93    H102    1.083   .     S
C94    C95     1.403   .     A
C94    H103    1.083   .     S
C95    C96     1.401   .     A
C96    C97     1.399   .     A
C96    H104    1.084   .     S
C97    H105    1.084   .     S
C106   C107    1.405   .     A
C106   C111    1.410   .     A
C106   C112    1.487   .     S
C107   C108    1.395   .     A
C107   H124    1.083   .     S
C108   C109    1.405   .     A
C108   H125    1.082   .     S
C109   C110    1.404   .     A
C110   C111    1.403   .     A
C110   H126    1.083   .     S
C111   H127    1.083   .     S
C112   N113    1.358   .     A
C112   N117    1.361   .     A
N113   N114    1.332   .     A
N114   C115    1.360   .     A
C115   N116    1.358   .     A
C115   C118    1.487   .     S
N116   N117    1.333   .     A
C118   C119    1.410   .     A
C118   C123    1.404   .     A
C119   H128    1.082   .     S
C119   C120    1.404   1_545 A
C120   C121    1.404   .     A
C120   H129    1.083   .     S
C120   C119    1.404   1_565 A
C121   C122    1.406   .     A
C122   H130    1.083   .     S
C122   C123    1.394   1_565 A
C123   H131    1.083   .     S
C123   C122    1.394   1_545 A
C132   C133    1.408   .     A
C132   C137    1.407   .     A
C132   C138    1.482   .     S
C133   C134    1.393   .     A
C133   H150    1.083   .     S
C134   C135    1.400   .     A
C134   H151    1.084   .     S
C135   C136    1.405   .     A
C136   C137    1.401   .     A
C136   H152    1.084   .     S
C137   H153    1.083   .     S
C138   N139    1.363   .     A
C138   N143    1.356   .     A
N139   N140    1.336   .     A
N140   C141    1.357   .     A
C141   N142    1.354   .     A
C141   C144    1.465   .     S
N142   N143    1.327   .     A
C144   C145    1.403   .     A
C144   C149    1.400   .     A
C145   C146    1.403   .     A
C145   H154    1.083   .     S
C146   C147    1.407   .     A
C146   H155    1.084   .     S
C147   C148    1.400   .     A
C148   C149    1.390   .     A
C148   H156    1.084   .     S
C149   H157    1.083   .     S
C158   C159    1.406   .     A
C158   C163    1.403   .     A
C158   C164    1.480   .     S
C159   C160    1.403   .     A
C159   H176    1.083   .     S
C160   C161    1.408   .     A
C160   H177    1.083   .     S
C161   C162    1.405   .     A
C162   C163    1.394   .     A
C162   H178    1.082   .     S
C163   H179    1.083   .     S
C164   N165    1.358   .     A
C164   N169    1.359   1_545 A
N165   N166    1.330   .     A
N166   C167    1.355   1_545 A
C167   N168    1.361   .     A
C167   C170    1.478   .     S
C167   N166    1.355   1_565 A
N168   N169    1.335   .     A
N169   C164    1.359   1_565 A
C170   C171    1.403   .     A
C170   C175    1.406   .     A
C171   C172    1.399   .     A
C171   H180    1.082   .     S
C172   C173    1.405   .     A
C172   H181    1.083   .     S
C173   C174    1.404   .     A
C173   C37     1.477   1_556 S
C174   C175    1.398   .     A
C174   H182    1.084   1_556 S
C175   H183    1.084   .     S
H182   C174    1.084   1_554 S
C184   C185    1.407   .     A
C184   C190    1.484   .     S
C184   C189    1.406   1_565 A
C185   C186    1.398   .     A
C185   H202    1.083   .     S
C186   H203    1.083   .     S
C186   C187    1.403   1_565 A
C187   C188    1.404   .     A
C187   C186    1.403   1_545 A
C188   C189    1.400   .     A
C188   H204    1.084   .     S
C189   H205    1.083   .     S
C189   C184    1.406   1_545 A
C190   N195    1.357   .     A
C190   N191    1.360   1_565 A
N191   C190    1.360   1_545 A
N191   N192    1.335   1_545 A
N192   C193    1.358   .     A
N192   N191    1.335   1_565 A
C193   N194    1.359   .     A
C193   C196    1.485   .     S
N194   N195    1.333   .     A
C196   C197    1.405   .     A
C196   C201    1.409   .     A
C197   C198    1.395   .     A
C197   H206    1.083   .     S
C198   C199    1.404   .     A
C198   H207    1.083   .     S
C199   C200    1.403   .     A
C200   C201    1.403   .     A
C200   H208    1.083   .     S
C201   H209    1.083   .     S
C210   C211    1.402   .     A
C210   C215    1.407   .     A
C210   C216    1.478   .     S
C211   C212    1.391   .     A
C211   H228    1.083   .     S
C212   C213    1.406   .     A
C212   H229    1.083   .     S
C213   C214    1.406   .     A
C214   C215    1.405   .     A
C214   H230    1.083   .     S
C215   H231    1.083   .     S
C216   N217    1.360   .     A
C216   N221    1.357   .     A
N217   N218    1.336   .     A
N218   C219    1.361   .     A
C219   N220    1.356   .     A
C219   C222    1.479   .     S
N220   N221    1.329   .     A
C222   C223    1.405   .     A
C222   C227    1.406   .     A
C223   C224    1.394   .     A
C223   H232    1.083   .     S
C224   C225    1.401   .     A
C224   H233    1.083   .     S
C225   C226    1.406   .     A
C226   C227    1.403   .     A
C226   H234    1.083   .     S
C227   H235    1.083   .     S
C236   C241    1.404   .     A
C236   C242    1.486   .     S
C236   C237    1.411   1_554 A
C237   C238    1.410   .     A
C237   H254    1.083   .     S
C237   C236    1.411   1_556 A
C238   C239    1.406   .     A
C238   H255    1.083   .     S
C239   C240    1.402   .     A
C240   H256    1.083   .     S
C240   C241    1.387   1_556 A
C241   H257    1.083   .     S
C241   C240    1.387   1_554 A
C242   N243    1.357   .     A
C242   N247    1.361   .     A
N243   N244    1.327   .     A
N244   C245    1.354   .     A
C245   N246    1.361   .     A
C245   C248    1.478   .     S
N246   N247    1.337   .     A
C248   C249    1.406   .     A
C248   C253    1.406   .     A
C249   C250    1.404   .     A
C249   H258    1.082   .     S
C250   C251    1.403   .     A
C250   H259    1.083   .     S
C251   C252    1.400   .     A
C252   C253    1.391   .     A
C252   H260    1.085   .     S
C253   H261    1.083   .     S
C262   C263    1.405   .     A
C262   C267    1.404   .     A
C262   C268    1.474   .     S
C263   C264    1.396   .     A
C263   H280    1.083   .     S
C264   C265    1.402   .     A
C264   H281    1.083   .     S
C265   C266    1.404   .     A
C266   C267    1.398   .     A
C266   H282    1.083   .     S
C267   H283    1.083   .     S
C268   N269    1.359   .     A
C268   N273    1.356   .     A
N269   N270    1.333   .     A
N270   C271    1.358   .     A
C271   N272    1.357   .     A
C271   C274    1.474   .     S
N272   N273    1.330   .     A
C274   C275    1.403   .     A
C274   C279    1.405   1_455 A
C275   H284    1.083   .     S
C275   C276    1.394   1_455 A
C276   C277    1.405   .     A
C276   H285    1.083   .     S
C276   C275    1.394   1_655 A
C277   C278    1.405   .     A
C278   C279    1.399   .     A
C278   H286    1.083   .     S
C279   H287    1.083   .     S
C279   C274    1.405   1_655 A
C288   C289    1.408   .     A
C288   C293    1.408   .     A
C288   C294    1.485   .     S
C289   C290    1.401   .     A
C289   H306    1.083   .     S
C290   H307    1.083   .     S
C290   C291    1.403   1_565 A
C291   C290    1.403   1_545 A
C291   C292    1.401   1_545 A
C292   C293    1.395   .     A
C292   C291    1.401   1_565 A
C292   H308    1.084   1_565 S
C293   H309    1.083   .     S
C294   N295    1.357   .     A
C294   N299    1.361   .     A
N295   N296    1.329   .     A
N296   C297    1.356   .     A
C297   N298    1.358   .     A
C297   C300    1.472   1_655 S
N298   N299    1.335   .     A
C300   C301    1.406   .     A
C300   C305    1.400   .     A
C300   C297    1.472   1_455 S
C301   C302    1.408   .     A
C301   H310    1.083   .     S
C302   C303    1.408   .     A
C302   H311    1.083   .     S
C303   C304    1.404   .     A
C304   C305    1.389   .     A
C304   H312    1.083   .     S
C305   H313    1.084   .     S
H308   C292    1.084   1_545 S
C314   C315    1.404   .     A
C314   C319    1.405   .     A
C314   C320    1.476   .     S
C315   C316    1.401   .     A
C315   H332    1.084   .     S
C316   H333    1.083   .     S
C316   C317    1.406   1_655 A
C317   C318    1.402   .     A
C317   C316    1.406   1_455 A
C318   H334    1.083   .     S
C318   C319    1.397   1_455 A
C319   H335    1.083   .     S
C319   C318    1.397   1_655 A
C320   N321    1.357   .     A
C320   N325    1.359   .     A
N321   N322    1.332   .     A
N322   C323    1.358   .     A
C323   N324    1.359   .     A
C323   C326    1.479   .     S
N324   N325    1.334   .     A
C326   C327    1.405   .     A
C326   C331    1.406   .     A
C327   C328    1.397   .     A
C327   H336    1.083   .     S
C328   C329    1.401   .     A
C328   H337    1.082   .     S
C329   C330    1.405   .     A
C330   C331    1.401   .     A
C330   H338    1.084   .     S
C331   H339    1.084   .     S
C340   C341    1.404   .     A
C340   C345    1.406   1_554 A
C340   C346    1.479   1_554 S
C341   C342    1.397   .     A
C341   H358    1.083   .     S
C342   C343    1.406   .     A
C342   H359    1.083   .     S
C343   C344    1.405   .     A
C344   H360    1.083   .     S
C344   C345    1.399   1_554 A
C345   H361    1.083   .     S
C345   C340    1.406   1_556 A
C345   C344    1.399   1_556 A
C346   N347    1.358   .     A
C346   C340    1.479   1_556 S
C346   N351    1.359   1_556 A
N347   N348    1.331   .     A
N348   C349    1.359   .     A
C349   C352    1.478   .     S
C349   N350    1.358   1_556 A
N350   N351    1.332   .     A
N350   C349    1.358   1_554 A
N351   C346    1.359   1_554 A
C352   C353    1.408   .     A
C352   C357    1.402   .     A
C353   H362    1.083   .     S
C353   C354    1.403   1_655 A
C354   C355    1.404   .     A
C354   H363    1.083   .     S
C354   C353    1.403   1_455 A
C355   C356    1.404   1_455 A
C356   C357    1.393   .     A
C356   H364    1.083   .     S
C356   C355    1.404   1_655 A
C357   H365    1.083   .     S
C366   C367    1.408   .     A
C366   C371    1.405   .     A
C366   C372    1.483   .     S
C367   C368    1.397   .     A
C367   H384    1.083   .     S
C368   C369    1.403   .     A
C368   H385    1.083   .     S
C369   C370    1.406   .     A
C370   C371    1.399   .     A
C370   H386    1.083   .     S
C371   H387    1.083   .     S
C372   N373    1.362   .     A
C372   N377    1.356   .     A
N373   N374    1.336   .     A
N374   C375    1.358   .     A
C375   N376    1.357   .     A
C375   C378    1.477   .     S
N376   N377    1.329   .     A
C378   C379    1.402   .     A
C378   C383    1.408   .     A
C379   C380    1.389   .     A
C379   H388    1.083   .     S
C380   C381    1.403   .     A
C380   H389    1.083   .     S
C381   C382    1.406   .     A
C382   C383    1.406   .     A
C382   H390    1.083   .     S
C383   H391    1.083   .     S
