data_lcy+N106+E28
_audit_creation_date              2025-01-21
_audit_creation_method            'Materials Studio'
_symmetry_space_group_name_H-M    'P1'
_symmetry_Int_Tables_number       1
_symmetry_cell_setting            triclinic
loop_
_symmetry_equiv_pos_as_xyz
  x,y,z
_cell_length_a                    32.8309
_cell_length_b                    32.6103
_cell_length_c                    33.3563
_cell_angle_alpha                 99.1567
_cell_angle_beta                  96.9732
_cell_angle_gamma                 90.8390
loop_
_atom_site_label
_atom_site_type_symbol
_atom_site_fract_x
_atom_site_fract_y
_atom_site_fract_z
_atom_site_U_iso_or_equiv
_atom_site_adp_type
_atom_site_occupancy
Y0     Y     0.11940   0.64588   0.82189   0.00000  Uiso   1.00
Y1     Y     0.15805   0.59418   0.88913   0.00000  Uiso   1.00
O2     O     0.16185   0.60633   0.78650   0.00000  Uiso   1.00
O3     O     0.11835   0.57685   0.82771   0.00000  Uiso   1.00
C4     C     0.19802   0.56343   0.95296   0.00000  Uiso   1.00
O5     O     0.09830   0.55746   0.88069   0.00000  Uiso   1.00
O6     O     0.09023   0.70608   0.81552   0.00000  Uiso   1.00
O7     O     0.08327   0.66010   0.76302   0.00000  Uiso   1.00
O8     O     0.20059   0.58386   0.83919   0.00000  Uiso   1.00
O9     O     0.16103   0.66207   0.88223   0.00000  Uiso   1.00
O10    O     0.18028   0.68016   0.82856   0.00000  Uiso   1.00
O11    O     0.07216   0.64504   0.86449   0.00000  Uiso   1.00
C12    C     0.19378   0.58889   0.80138   0.00000  Uiso   1.00
O13    O     0.11001   0.63186   0.92114   0.00000  Uiso   1.00
C14    C     0.08864   0.55725   0.84449   0.00000  Uiso   1.00
O15    O     0.18024   0.54084   0.92124   0.00000  Uiso   1.00
O16    O     0.19757   0.60151   0.95012   0.00000  Uiso   1.00
C17    C     0.07514   0.69658   0.77867   0.00000  Uiso   1.00
C18    C     0.07672   0.64388   0.90280   0.00000  Uiso   1.00
C19    C     0.19180   0.67840   0.86400   0.00000  Uiso   1.00
Y20    Y     0.66233   0.82810   0.10405   0.00000  Uiso   1.00
Y21    Y     0.60322   0.89976   0.13244   0.00000  Uiso   1.00
O22    O     0.61584   0.79397   0.13161   0.00000  Uiso   1.00
O23    O     0.59343   0.83644   0.09326   0.00000  Uiso   1.00
C24    C     0.56149   0.96481   0.16520   0.00000  Uiso   1.00
O25    O     0.57046   0.88830   0.06744   0.00000  Uiso   1.00
O26    O     0.71924   0.79075   0.10807   0.00000  Uiso   1.00
O27    O     0.68185   0.78208   0.05170   0.00000  Uiso   1.00
O28    O     0.59043   0.84862   0.17016   0.00000  Uiso   1.00
O29    O     0.67131   0.89060   0.14635   0.00000  Uiso   1.00
O30    O     0.68934   0.83557   0.16994   0.00000  Uiso   1.00
O31    O     0.67066   0.87552   0.06356   0.00000  Uiso   1.00
C32    C     0.59551   0.80917   0.16084   0.00000  Uiso   1.00
O33    O     0.64570   0.93231   0.09828   0.00000  Uiso   1.00
C34    C     0.57301   0.85100   0.06045   0.00000  Uiso   1.00
O35    O     0.55423   0.94674   0.12877   0.00000  Uiso   1.00
O36    O     0.58908   0.94768   0.18590   0.00000  Uiso   1.00
C37    C     0.71491   0.77301   0.07142   0.00000  Uiso   1.00
C38    C     0.66427   0.91446   0.06894   0.00000  Uiso   1.00
C39    C     0.68501   0.87234   0.17987   0.00000  Uiso   1.00
Y40    Y     0.82154   0.11187   0.67229   0.00000  Uiso   1.00
Y41    Y     0.88171   0.13753   0.61214   0.00000  Uiso   1.00
O42    O     0.78171   0.15375   0.63976   0.00000  Uiso   1.00
O43    O     0.81928   0.10444   0.60223   0.00000  Uiso   1.00
C44    C     0.94117   0.17413   0.57945   0.00000  Uiso   1.00
O45    O     0.86764   0.07546   0.57156   0.00000  Uiso   1.00
O46    O     0.82218   0.09441   0.73406   0.00000  Uiso   1.00
O47    O     0.76697   0.08180   0.69460   0.00000  Uiso   1.00
O48    O     0.83088   0.18466   0.61157   0.00000  Uiso   1.00
O49    O     0.88193   0.14831   0.68031   0.00000  Uiso   1.00
O50    O     0.83189   0.17683   0.70796   0.00000  Uiso   1.00
O51    O     0.86326   0.05879   0.66304   0.00000  Uiso   1.00
C52    C     0.79407   0.18227   0.62118   0.00000  Uiso   1.00
O53    O     0.91666   0.08716   0.63995   0.00000  Uiso   1.00
C54    C     0.83181   0.07137   0.57603   0.00000  Uiso   1.00
O55    O     0.90845   0.15818   0.55859   0.00000  Uiso   1.00
O56    O     0.94247   0.17154   0.61675   0.00000  Uiso   1.00
C57    C     0.78600   0.07981   0.72964   0.00000  Uiso   1.00
C58    C     0.90041   0.05831   0.65544   0.00000  Uiso   1.00
C59    C     0.86603   0.18369   0.70017   0.00000  Uiso   1.00
Y60    Y     0.42107   0.42738   0.38010   0.00000  Uiso   1.00
Y61    Y     0.35010   0.36747   0.39572   0.00000  Uiso   1.00
O62    O     0.45776   0.38161   0.41044   0.00000  Uiso   1.00
O63    O     0.40697   0.35756   0.36436   0.00000  Uiso   1.00
C64    C     0.29090   0.33130   0.42924   0.00000  Uiso   1.00
O65    O     0.35000   0.33173   0.33163   0.00000  Uiso   1.00
O66    O     0.45944   0.48663   0.38928   0.00000  Uiso   1.00
O67    O     0.46121   0.44501   0.33468   0.00000  Uiso   1.00
O68    O     0.40736   0.35365   0.43902   0.00000  Uiso   1.00
O69    O     0.36433   0.43636   0.41195   0.00000  Uiso   1.00
O70    O     0.42265   0.45343   0.44736   0.00000  Uiso   1.00
O71    O     0.36876   0.43641   0.33281   0.00000  Uiso   1.00
C72    C     0.44581   0.35942   0.43557   0.00000  Uiso   1.00
O73    O     0.31458   0.40664   0.35366   0.00000  Uiso   1.00
C74    C     0.38634   0.33531   0.32911   0.00000  Uiso   1.00
O75    O     0.30286   0.31636   0.39561   0.00000  Uiso   1.00
O76    O     0.31053   0.36430   0.44612   0.00000  Uiso   1.00
C77    C     0.47258   0.48020   0.35500   0.00000  Uiso   1.00
C78    C     0.33024   0.42819   0.32991   0.00000  Uiso   1.00
C79    C     0.38634   0.45007   0.44955   0.00000  Uiso   1.00
C80    C     0.47556   0.78243  -0.01769   0.00000  Uiso   1.00
C81    C     0.48888   0.82101  -0.02618   0.00000  Uiso   1.00
C82    C     0.52368   0.84205  -0.00344   0.00000  Uiso   1.00
C83    C     0.54612   0.82454   0.02773   0.00000  Uiso   1.00
C84    C     0.53527   0.78430   0.03352   0.00000  Uiso   1.00
C85    C     0.50009   0.76353   0.01126   0.00000  Uiso   1.00
C86    C     0.43455   0.76437  -0.03602   0.00000  Uiso   1.00
N87    N     0.41492   0.73613  -0.01842   0.00000  Uiso   1.00
N88    N     0.37683   0.72229   0.96674   0.00000  Uiso   1.00
C89    C     0.35668   0.73599   0.93358   0.00000  Uiso   1.00
N90    N     0.37646   0.76397   0.91590   0.00000  Uiso   1.00
N91    N     0.41435   0.77800   0.93088   0.00000  Uiso   1.00
C92    C     0.31432   0.72082   0.91662   0.00000  Uiso   1.00
C93    C     0.29901   0.72551   0.87653   0.00000  Uiso   1.00
C94    C     0.25925   0.71172   0.86003   0.00000  Uiso   1.00
C95    C     0.23328   0.69361   0.88337   0.00000  Uiso   1.00
C96    C     0.24804   0.68934   0.92370   0.00000  Uiso   1.00
C97    C     0.28848   0.70239   0.94006   0.00000  Uiso   1.00
H98    H     0.47078   0.83640   0.95167   0.00000  Uiso   1.00
H99    H     0.53131   0.87321  -0.00820   0.00000  Uiso   1.00
H100   H     0.55188   0.77037   0.05775   0.00000  Uiso   1.00
H101   H     0.49102   0.73368   0.01826   0.00000  Uiso   1.00
H102   H     0.31804   0.73918   0.85746   0.00000  Uiso   1.00
H103   H     0.24878   0.71529   0.82873   0.00000  Uiso   1.00
H104   H     0.22846   0.67592   0.94241   0.00000  Uiso   1.00
H105   H     0.29944   0.69829   0.97106   0.00000  Uiso   1.00
C106   C     0.44500   0.23851   0.25978   0.00000  Uiso   1.00
C107   C     0.40298   0.24400   0.24949   0.00000  Uiso   1.00
C108   C     0.38408   0.27848   0.26898   0.00000  Uiso   1.00
C109   C     0.40708   0.30785   0.29895   0.00000  Uiso   1.00
C110   C     0.44982   0.30412   0.30634   0.00000  Uiso   1.00
C111   C     0.46860   0.26945   0.28714   0.00000  Uiso   1.00
C112   C     0.46283   0.19844   0.24623   0.00000  Uiso   1.00
N113   N     0.47016   0.18727   0.20694   0.00000  Uiso   1.00
N114   N     0.48502   0.15018   0.19474   0.00000  Uiso   1.00
C115   C     0.49288   0.12271   0.22121   0.00000  Uiso   1.00
N116   N     0.48537   0.13405   0.26051   0.00000  Uiso   1.00
N117   N     0.47060   0.17116   0.27274   0.00000  Uiso   1.00
C118   C     0.50907   0.08129   0.20735   0.00000  Uiso   1.00
C119   C     0.52443   0.05567   0.23561   0.00000  Uiso   1.00
C120   C     0.54116   1.01735   0.22214   0.00000  Uiso   1.00
C121   C     0.54188   1.00364   0.18023   0.00000  Uiso   1.00
C122   C     0.52578   0.02873   0.15203   0.00000  Uiso   1.00
C123   C     0.50981   0.06719   0.16541   0.00000  Uiso   1.00
H124   H     0.38431   0.22017   0.22865   0.00000  Uiso   1.00
H125   H     0.35105   0.28039   0.26304   0.00000  Uiso   1.00
H126   H     0.46825   0.32616   0.32944   0.00000  Uiso   1.00
H127   H     0.50114   0.26572   0.29518   0.00000  Uiso   1.00
H128   H     0.52417   0.06546   0.26815   0.00000  Uiso   1.00
H129   H     0.55347   0.99844   0.24437   0.00000  Uiso   1.00
H130   H     0.52658   1.01911   0.11953   0.00000  Uiso   1.00
H131   H     0.49822   0.08594   0.14277   0.00000  Uiso   1.00
C132   C     0.69730   0.25677   0.57912   0.00000  Uiso   1.00
C133   C     0.73266   0.25210   0.55897   0.00000  Uiso   1.00
C134   C     0.76568   0.22994   0.57401   0.00000  Uiso   1.00
C135   C     0.76363   0.21204   0.60923   0.00000  Uiso   1.00
C136   C     0.72960   0.21910   0.63083   0.00000  Uiso   1.00
C137   C     0.69683   0.24136   0.61602   0.00000  Uiso   1.00
C138   C     0.65968   0.27393   0.55999   0.00000  Uiso   1.00
N139   N     0.62586   0.27927   0.57980   0.00000  Uiso   1.00
N140   N     0.59071   0.29095   0.56108   0.00000  Uiso   1.00
C141   C     0.58805   0.29736   0.52167   0.00000  Uiso   1.00
N142   N     0.62203   0.29256   0.50212   0.00000  Uiso   1.00
N143   N     0.65714   0.28102   0.52084   0.00000  Uiso   1.00
C144   C     0.54908   0.30932   0.49993   0.00000  Uiso   1.00
C145   C     0.54637   0.30999   0.45778   0.00000  Uiso   1.00
C146   C     0.51163   0.32441   0.43712   0.00000  Uiso   1.00
C147   C     0.47836   0.33818   0.45780   0.00000  Uiso   1.00
C148   C     0.47980   0.33585   0.49958   0.00000  Uiso   1.00
C149   C     0.51503   0.32131   0.52056   0.00000  Uiso   1.00
H150   H     0.73421   0.26402   0.53068   0.00000  Uiso   1.00
H151   H     0.79161   0.22471   0.55683   0.00000  Uiso   1.00
H152   H     0.72758   0.20594   0.65840   0.00000  Uiso   1.00
H153   H     0.67031   0.24464   0.63250   0.00000  Uiso   1.00
H154   H     0.57157   0.30040   0.44069   0.00000  Uiso   1.00
H155   H     0.51136   0.32611   0.40491   0.00000  Uiso   1.00
H156   H     0.45488   0.34726   0.51632   0.00000  Uiso   1.00
H157   H     0.51619   0.32089   0.55308   0.00000  Uiso   1.00
C158   C     0.74293   0.03261   0.83080   0.00000  Uiso   1.00
C159   C     0.71422   0.04124   0.79843   0.00000  Uiso   1.00
C160   C     0.72759   0.05572   0.76446   0.00000  Uiso   1.00
C161   C     0.76974   0.06232   0.76293   0.00000  Uiso   1.00
C162   C     0.79801   0.05368   0.79529   0.00000  Uiso   1.00
C163   C     0.78489   0.03903   0.82858   0.00000  Uiso   1.00
C164   C     0.73049   0.01681   0.86702   0.00000  Uiso   1.00
N165   N     0.75859   0.99863   0.89126   0.00000  Uiso   1.00
N166   N     0.74875   0.98523   0.92455   0.00000  Uiso   1.00
C167   C     0.71038   0.98968   0.93543   0.00000  Uiso   1.00
N168   N     0.68203   0.00776   0.91119   0.00000  Uiso   1.00
N169   N     0.69187   0.02104   0.87759   0.00000  Uiso   1.00
C170   C     0.69992   0.97377   0.97232   0.00000  Uiso   1.00
C171   C     0.66463   0.98629   0.99051   0.00000  Uiso   1.00
C172   C     0.65423   0.96905   0.02401   0.00000  Uiso   1.00
C173   C     0.67857   0.93857   0.03928   0.00000  Uiso   1.00
C174   C     0.71442   0.92716   0.02203   0.00000  Uiso   1.00
C175   C     0.72522   0.94484   0.98926   0.00000  Uiso   1.00
H176   H     0.68163   0.03661   0.79930   0.00000  Uiso   1.00
H177   H     0.70518   0.06243   0.73995   0.00000  Uiso   1.00
H178   H     0.83069   0.05846   0.79501   0.00000  Uiso   1.00
H179   H     0.80791   1.03331   0.85299   0.00000  Uiso   1.00
H180   H     0.64480   1.00888   0.97851   0.00000  Uiso   1.00
H181   H     0.62616   0.97792   0.03663   0.00000  Uiso   1.00
H182   H     0.73362   0.90367   0.03333   0.00000  Uiso   1.00
H183   H     0.75276   0.93464   0.97632   0.00000  Uiso   1.00
C184   C     0.76358  -0.00056   0.47193   0.00000  Uiso   1.00
C185   C     0.79894  -0.01650   0.49139   0.00000  Uiso   1.00
C186   C     0.81901   0.00475   0.52832   0.00000  Uiso   1.00
C187   C     0.80396   0.04212   0.54675   0.00000  Uiso   1.00
C188   C     0.76668   0.05626   0.52945   0.00000  Uiso   1.00
C189   C     0.74687   0.03534   0.49203   0.00000  Uiso   1.00
C190   C     0.74664  -0.01975   0.42968   0.00000  Uiso   1.00
N191   N     0.72222   0.00165   0.40488   0.00000  Uiso   1.00
N192   N     0.71007  -0.01469   0.36585   0.00000  Uiso   1.00
C193   C     0.72170   0.94682   0.35014   0.00000  Uiso   1.00
N194   N     0.74559   0.92536   0.37515   0.00000  Uiso   1.00
N195   N     0.75795   0.94176   0.41393   0.00000  Uiso   1.00
C196   C     0.71022   0.92861   0.30642   0.00000  Uiso   1.00
C197   C     0.71509   0.88599   0.29382   0.00000  Uiso   1.00
C198   C     0.70717   0.86847   0.25272   0.00000  Uiso   1.00
C199   C     0.69386   0.89286   0.22290   0.00000  Uiso   1.00
C200   C     0.68855   0.93546   0.23506   0.00000  Uiso   1.00
C201   C     0.69662   0.95324   0.27663   0.00000  Uiso   1.00
H202   H     0.81280   0.95609   0.47677   0.00000  Uiso   1.00
H203   H     0.84794  -0.00637   0.54100   0.00000  Uiso   1.00
H204   H     0.75495   0.08554   0.54278   0.00000  Uiso   1.00
H205   H     0.71961   0.04833   0.47798   0.00000  Uiso   1.00
H206   H     0.72531   0.86595   0.31573   0.00000  Uiso   1.00
H207   H     0.71164   0.83552   0.24423   0.00000  Uiso   1.00
H208   H     0.67847   0.95493   0.21256   0.00000  Uiso   1.00
H209   H     0.69315   0.98630   0.28531   0.00000  Uiso   1.00
C210   C     0.33827   0.48962   0.56236   0.00000  Uiso   1.00
C211   C     0.33707   0.51538   0.53214   0.00000  Uiso   1.00
C212   C     0.35185   0.50180   0.49497   0.00000  Uiso   1.00
C213   C     0.36846   0.46254   0.48749   0.00000  Uiso   1.00
C214   C     0.37000   0.43662   0.51734   0.00000  Uiso   1.00
C215   C     0.35461   0.44992   0.55442   0.00000  Uiso   1.00
C216   C     0.32241   0.50442   0.60168   0.00000  Uiso   1.00
N217   N     0.31652   0.47818   0.62851   0.00000  Uiso   1.00
N218   N     0.30084   0.49168   0.66313   0.00000  Uiso   1.00
C219   C     0.29062   0.53203   0.67238   0.00000  Uiso   1.00
N220   N     0.29708   0.55820   0.64576   0.00000  Uiso   1.00
N221   N     0.31260   0.54475   0.61124   0.00000  Uiso   1.00
C222   C     0.27027   0.54717   0.70905   0.00000  Uiso   1.00
C223   C     0.25662   0.58809   0.71480   0.00000  Uiso   1.00
C224   C     0.23356   0.60190   0.74630   0.00000  Uiso   1.00
C225   C     0.22372   0.57533   0.77307   0.00000  Uiso   1.00
C226   C     0.23911   0.53519   0.76922   0.00000  Uiso   1.00
C227   C     0.26204   0.52101   0.73714   0.00000  Uiso   1.00
H228   H     0.32473   0.54613   0.53711   0.00000  Uiso   1.00
H229   H     0.35110   0.52224   0.47228   0.00000  Uiso   1.00
H230   H     0.38319   0.40627   0.51204   0.00000  Uiso   1.00
H231   H     0.35600   0.42940   0.57704   0.00000  Uiso   1.00
H232   H     0.26231   0.60918   0.69393   0.00000  Uiso   1.00
H233   H     0.22226   0.63315   0.74901   0.00000  Uiso   1.00
H234   H     0.23145   0.51418   0.78947   0.00000  Uiso   1.00
H235   H     0.27207   0.48928   0.73358   0.00000  Uiso   1.00
C236   C     0.23408   0.52116   0.06738   0.00000  Uiso   1.00
C237   C     0.21854   0.49261   0.03243   0.00000  Uiso   1.00
C238   C     0.20867   0.50582   0.99453   0.00000  Uiso   1.00
C239   C     0.21421   0.54781   0.99083   0.00000  Uiso   1.00
C240   C     0.23118   0.57595   1.02528   0.00000  Uiso   1.00
C241   C     0.24102   0.56284   0.06307   0.00000  Uiso   1.00
C242   C     0.24254   0.50804   0.10825   0.00000  Uiso   1.00
N243   N     0.26037   0.53525   0.14096   0.00000  Uiso   1.00
N244   N     0.26841   0.52380   0.17759   0.00000  Uiso   1.00
C245   C     0.25886   0.48465   0.18336   0.00000  Uiso   1.00
N246   N     0.24063   0.45743   0.15074   0.00000  Uiso   1.00
N247   N     0.23256   0.46892   0.11399   0.00000  Uiso   1.00
C248   C     0.27118   0.47150   0.22375   0.00000  Uiso   1.00
C249   C     0.26112   0.43146   0.23131   0.00000  Uiso   1.00
C250   C     0.27729   0.41821   0.26793   0.00000  Uiso   1.00
C251   C     0.30428   0.44453   0.29711   0.00000  Uiso   1.00
C252   C     0.31260   0.48503   0.29041   0.00000  Uiso   1.00
C253   C     0.29600   0.49847   0.25445   0.00000  Uiso   1.00
H254   H     0.21329   0.46020   0.03449   0.00000  Uiso   1.00
H255   H     0.19553   0.48342   0.96846   0.00000  Uiso   1.00
H256   H     0.23570   0.60849   1.02332   0.00000  Uiso   1.00
H257   H     0.25308   0.58578   0.08913   0.00000  Uiso   1.00
H258   H     0.24232   0.40976   0.20823   0.00000  Uiso   1.00
H259   H     0.27118   0.38650   0.27205   0.00000  Uiso   1.00
H260   H     0.33379   0.50566   0.31221   0.00000  Uiso   1.00
H261   H     0.30464   0.52938   0.24985   0.00000  Uiso   1.00
C262   C     0.18614   0.28337   0.47496   0.00000  Uiso   1.00
C263   C     0.21035   0.31685   0.49821   0.00000  Uiso   1.00
C264   C     0.24516   0.33161   0.48392   0.00000  Uiso   1.00
C265   C     0.25639   0.31334   0.44601   0.00000  Uiso   1.00
C266   C     0.23282   0.27939   0.42312   0.00000  Uiso   1.00
C267   C     0.19800   0.26460   0.43739   0.00000  Uiso   1.00
C268   C     0.14867   0.26845   0.48969   0.00000  Uiso   1.00
N269   N     0.12174   0.24056   0.46492   0.00000  Uiso   1.00
N270   N     0.08824   0.22707   0.47829   0.00000  Uiso   1.00
C271   C     0.08012   0.24075   0.51708   0.00000  Uiso   1.00
N272   N     0.10695   0.26875   0.54177   0.00000  Uiso   1.00
N273   N     0.14035   0.28235   0.52835   0.00000  Uiso   1.00
C274   C     0.04350   0.22493   0.53252   0.00000  Uiso   1.00
C275   C     0.04019   0.23205   0.57466   0.00000  Uiso   1.00
C276   C     1.00640   0.21619   0.58959   0.00000  Uiso   1.00
C277   C     0.97511   0.19292   0.56275   0.00000  Uiso   1.00
C278   C     0.97796   0.18604   0.52063   0.00000  Uiso   1.00
C279   C     0.01199   0.20171   0.50564   0.00000  Uiso   1.00
H280   H     0.20205   0.33217   0.52717   0.00000  Uiso   1.00
H281   H     0.26291   0.35778   0.50223   0.00000  Uiso   1.00
H282   H     0.24082   0.26480   0.39375   0.00000  Uiso   1.00
H283   H     0.18026   0.23860   0.41882   0.00000  Uiso   1.00
H284   H     0.06407   0.24927   0.59631   0.00000  Uiso   1.00
H285   H     1.00502   0.22169   0.62231   0.00000  Uiso   1.00
H286   H     0.95446   0.16761   0.49950   0.00000  Uiso   1.00
H287   H     0.01367   0.19548   0.47305   0.00000  Uiso   1.00
C288   C     0.95857   0.94825   0.68473   0.00000  Uiso   1.00
C289   C     0.93303   0.97058   0.71066   0.00000  Uiso   1.00
C290   C     0.91608   0.00727   0.70164   0.00000  Uiso   1.00
C291   C     0.92428   0.02304   0.66663   0.00000  Uiso   1.00
C292   C     0.95149   1.00234   0.64159   0.00000  Uiso   1.00
C293   C     0.96848   0.96498   0.65053   0.00000  Uiso   1.00
C294   C     0.97301   0.90730   0.69359   0.00000  Uiso   1.00
N295   N     0.99866   0.88426   0.67060   0.00000  Uiso   1.00
N296   N     0.01143   0.84778   0.67992   0.00000  Uiso   1.00
C297   C    -0.00119   0.83288   0.71242   0.00000  Uiso   1.00
N298   N    -0.02729   0.85570   0.73471   0.00000  Uiso   1.00
N299   N     0.96009   0.89191   0.72549   0.00000  Uiso   1.00
C300   C     0.01506   0.79444   0.72603   0.00000  Uiso   1.00
C301   C     0.00846   0.78654   0.76499   0.00000  Uiso   1.00
C302   C     0.02650   0.75326   0.78074   0.00000  Uiso   1.00
C303   C     0.05092   0.72631   0.75776   0.00000  Uiso   1.00
C304   C     0.05597   0.73233   0.71788   0.00000  Uiso   1.00
C305   C     0.03866   0.76669   0.70229   0.00000  Uiso   1.00
H306   H     0.92496   0.95922   0.73755   0.00000  Uiso   1.00
H307   H     0.89545   0.02290   0.72164   0.00000  Uiso   1.00
H308   H     0.95792   1.01386   0.61423   0.00000  Uiso   1.00
H309   H     0.98830   0.94867   0.63013   0.00000  Uiso   1.00
H310   H    -0.00922   0.80718   0.78439   0.00000  Uiso   1.00
H311   H     0.02236   0.74928   0.81164   0.00000  Uiso   1.00
H312   H     0.07518   0.71206   0.69986   0.00000  Uiso   1.00
H313   H     0.04449   0.77206   0.67226   0.00000  Uiso   1.00
C314   C    -0.00244   0.46629   0.78531   0.00000  Uiso   1.00
C315   C     0.02567   0.48190   0.76226   0.00000  Uiso   1.00
C316   C     0.05357   0.51446   0.78044   0.00000  Uiso   1.00
C317   C     0.05341   0.53186   0.82167   0.00000  Uiso   1.00
C318   C     0.02282   0.51899   0.84331   0.00000  Uiso   1.00
C319   C    -0.00485   0.48662   0.82534   0.00000  Uiso   1.00
C320   C     0.97408   0.42660   0.76996   0.00000  Uiso   1.00
N321   N     0.95162   0.40934   0.79499   0.00000  Uiso   1.00
N322   N     0.93373   0.37180   0.78321   0.00000  Uiso   1.00
C323   C     0.93757   0.34973   0.74586   0.00000  Uiso   1.00
N324   N     0.95956   0.36716   0.72051   0.00000  Uiso   1.00
N325   N     0.97757   0.40476   0.73236   0.00000  Uiso   1.00
C326   C     0.91955   0.30697   0.73393   0.00000  Uiso   1.00
C327   C     0.92282   0.28405   0.69508   0.00000  Uiso   1.00
C328   C     0.90639   0.24341   0.68434   0.00000  Uiso   1.00
C329   C     0.88678   0.22485   0.71226   0.00000  Uiso   1.00
C330   C     0.88295   0.24781   0.75078   0.00000  Uiso   1.00
C331   C     0.89938   0.28834   0.76166   0.00000  Uiso   1.00
H332   H     0.02772   0.46746   0.73104   0.00000  Uiso   1.00
H333   H     0.07707   0.52380   0.76325   0.00000  Uiso   1.00
H334   H     0.02195   0.53223   0.87509   0.00000  Uiso   1.00
H335   H    -0.02653   0.47599   0.84378   0.00000  Uiso   1.00
H336   H     0.93764   0.29767   0.67280   0.00000  Uiso   1.00
H337   H     0.90731   0.22739   0.65365   0.00000  Uiso   1.00
H338   H     0.86708   0.23435   0.77247   0.00000  Uiso   1.00
H339   H     0.89624   0.30500   0.79186   0.00000  Uiso   1.00
C340   C     0.81555   0.71018   0.02074   0.00000  Uiso   1.00
C341   C     0.81461   0.71811   0.06326   0.00000  Uiso   1.00
C342   C     0.78074   0.73642   0.07953   0.00000  Uiso   1.00
C343   C     0.74689   0.74710   0.05370   0.00000  Uiso   1.00
C344   C     0.74653   0.73700   1.01118   0.00000  Uiso   1.00
C345   C     0.78059   0.71876   0.99482   0.00000  Uiso   1.00
C346   C     0.85392   0.69636   1.00397   0.00000  Uiso   1.00
N347   N     0.85856   0.69843   0.96445   0.00000  Uiso   1.00
N348   N     0.89426   0.69006   0.95040   0.00000  Uiso   1.00
C349   C     0.92705   0.67926   0.97511   0.00000  Uiso   1.00
N350   N     0.92221   0.67620   0.01440   0.00000  Uiso   1.00
N351   N     0.88647   0.68474   0.02854   0.00000  Uiso   1.00
C352   C     0.96723   0.67238   0.95933   0.00000  Uiso   1.00
C353   C    -0.00050   0.65279   0.98005   0.00000  Uiso   1.00
C354   C     0.03615   0.64449   0.96277   0.00000  Uiso   1.00
C355   C     0.04116   0.65623   0.92487   0.00000  Uiso   1.00
C356   C     0.00974   0.67784   0.90562   0.00000  Uiso   1.00
C357   C     0.97342   0.68569   0.92251   0.00000  Uiso   1.00
H358   H     0.84084   0.71197   0.08414   0.00000  Uiso   1.00
H359   H     0.78173   0.74372   0.11249   0.00000  Uiso   1.00
H360   H     0.72079   0.74501   0.99066   0.00000  Uiso   1.00
H361   H     0.78003   0.71268   0.96189   0.00000  Uiso   1.00
H362   H    -0.00395   0.64288   0.00894   0.00000  Uiso   1.00
H363   H     0.05991   0.62787   0.97827   0.00000  Uiso   1.00
H364   H     0.01284   0.68814   0.87678   0.00000  Uiso   1.00
H365   H     0.94992   0.70194   0.90626   0.00000  Uiso   1.00
C366   C     0.55310   0.71497   0.22308   0.00000  Uiso   1.00
C367   C     0.55222   0.70814   0.18033   0.00000  Uiso   1.00
C368   C     0.56385   0.73981   0.16021   0.00000  Uiso   1.00
C369   C     0.57655   0.77916   0.18220   0.00000  Uiso   1.00
C370   C     0.57538   0.78704   0.22460   0.00000  Uiso   1.00
C371   C     0.56388   0.75506   0.24496   0.00000  Uiso   1.00
C372   C     0.54477   0.67971   0.24434   0.00000  Uiso   1.00
N373   N     0.54438   0.68531   0.28553   0.00000  Uiso   1.00
N374   N     0.53800   0.65312   0.30439   0.00000  Uiso   1.00
C375   C     0.53211   0.61396   0.28291   0.00000  Uiso   1.00
N376   N     0.53254   0.60845   0.24178   0.00000  Uiso   1.00
N377   N     0.53882   0.64058   0.22295   0.00000  Uiso   1.00
C378   C     0.52325   0.57824   0.30334   0.00000  Uiso   1.00
C379   C     0.51745   0.53789   0.28064   0.00000  Uiso   1.00
C380   C     0.50360   0.50513   0.29836   0.00000  Uiso   1.00
C381   C     0.49536   0.51204   0.33909   0.00000  Uiso   1.00
C382   C     0.50400   0.55155   0.36271   0.00000  Uiso   1.00
C383   C     0.51788   0.58436   0.34502   0.00000  Uiso   1.00
H384   H     0.54381   0.67788   0.16236   0.00000  Uiso   1.00
H385   H     0.56421   0.73311   0.12738   0.00000  Uiso   1.00
H386   H     0.58552   0.81707   0.24216   0.00000  Uiso   1.00
H387   H     0.56492   0.76131   0.27793   0.00000  Uiso   1.00
H388   H     0.52209   0.53182   0.24869   0.00000  Uiso   1.00
H389   H     0.49743   0.47485   0.27963   0.00000  Uiso   1.00
H390   H     0.49823   0.55758   0.39438   0.00000  Uiso   1.00
H391   H     0.52274   0.61483   0.36359   0.00000  Uiso   1.00
loop_
_geom_bond_atom_site_label_1
_geom_bond_atom_site_label_2
_geom_bond_distance
_geom_bond_site_symmetry_2
_ccdc_geom_bond_type
Y0     O2      2.229   .     S
Y0     O3      2.290   .     S
Y0     O6      2.226   .     S
Y0     O7      2.284   .     S
Y0     O9      2.274   .     S
Y0     O10     2.245   .     S
Y0     O11     2.230   .     S
Y1     O3      2.275   .     S
Y1     O5      2.247   .     S
Y1     O8      2.289   .     S
Y1     O9      2.264   .     S
Y1     O13     2.277   .     S
Y1     O15     2.268   .     S
Y1     O16     2.253   .     S
O2     C12     1.284   .     A
O3     C14     1.379   .     S
C4     O15     1.262   .     A
C4     O16     1.261   .     A
C4     C239    1.479   .     S
O5     C14     1.209   .     D
O6     C17     1.256   .     A
O7     C17     1.267   .     A
O8     C12     1.291   .     A
O9     C19     1.382   .     S
O10    C19     1.207   .     D
O11    C18     1.275   .     A
C12    C225    1.469   .     S
O13    C18     1.284   .     A
C14    C317    1.470   .     S
C17    C303    1.470   .     S
C18    C355    1.482   .     S
C19    C95     1.477   .     S
Y20    O22     2.243   .     S
Y20    O23     2.274   .     S
Y20    O26     2.247   .     S
Y20    O27     2.276   .     S
Y20    O29     2.280   .     S
Y20    O30     2.242   .     S
Y20    O31     2.243   .     S
Y21    O23     2.257   .     S
Y21    O25     2.272   .     S
Y21    O28     2.306   .     S
Y21    O29     2.261   .     S
Y21    O33     2.258   .     S
Y21    O35     2.243   .     S
Y21    O36     2.274   .     S
O22    C32     1.287   .     A
O23    C34     1.367   .     S
C24    O35     1.256   .     A
C24    O36     1.263   .     A
C24    C121    1.473   .     S
O25    C34     1.208   .     D
O26    C37     1.257   .     A
O27    C37     1.264   .     A
O28    C32     1.293   .     A
O29    C39     1.380   .     S
O30    C39     1.207   .     D
O31    C38     1.278   .     A
C32    C369    1.471   .     S
O33    C38     1.282   .     A
C34    C83     1.470   .     S
C37    C343    1.477   .     S
C38    C173    1.472   .     S
C39    C199    1.476   .     S
Y40    O42     2.221   .     S
Y40    O43     2.303   .     S
Y40    O46     2.221   .     S
Y40    O47     2.287   .     S
Y40    O49     2.262   .     S
Y40    O50     2.258   .     S
Y40    O51     2.229   .     S
Y41    O43     2.266   .     S
Y41    O45     2.256   .     S
Y41    O48     2.286   .     S
Y41    O49     2.244   .     S
Y41    O53     2.271   .     S
Y41    O55     2.272   .     S
Y41    O56     2.245   .     S
O42    C52     1.283   .     A
O43    C54     1.377   .     S
C44    O55     1.263   .     A
C44    O56     1.256   .     A
C44    C277    1.472   .     S
O45    C54     1.212   .     D
O46    C57     1.256   .     A
O47    C57     1.268   .     A
O48    C52     1.292   .     A
O49    C59     1.379   .     S
O50    C59     1.207   .     D
O51    C58     1.275   .     A
C52    C135    1.468   .     S
O53    C58     1.282   .     A
C54    C187    1.470   .     S
C57    C161    1.477   .     S
C58    C291    1.473   .     S
C59    C329    1.470   .     S
Y60    O62     2.223   .     S
Y60    O63     2.281   .     S
Y60    O66     2.250   .     S
Y60    O67     2.259   .     S
Y60    O69     2.254   .     S
Y60    O70     2.263   .     S
Y60    O71     2.243   .     S
Y61    O63     2.251   .     S
Y61    O65     2.266   .     S
Y61    O68     2.323   .     S
Y61    O69     2.254   .     S
Y61    O73     2.275   .     S
Y61    O75     2.259   .     S
Y61    O76     2.260   .     S
O62    C72     1.282   .     A
O63    C74     1.374   .     S
C64    O75     1.261   .     A
C64    O76     1.261   .     A
C64    C265    1.476   .     S
O65    C74     1.212   .     D
O66    C77     1.258   .     A
O67    C77     1.263   .     A
O68    C72     1.295   .     A
O69    C79     1.374   .     S
O70    C79     1.207   .     D
O71    C78     1.278   .     A
C72    C147    1.471   .     S
O73    C78     1.285   .     A
C74    C109    1.475   .     S
C77    C381    1.472   .     S
C78    C251    1.476   .     S
C79    C213    1.461   .     S
C80    C81     1.408   .     A
C80    C85     1.406   .     A
C80    C86     1.482   .     S
C81    C82     1.397   .     A
C81    H98     1.082   1_554 S
C82    C83     1.402   .     A
C82    H99     1.084   .     S
C83    C84     1.404   .     A
C84    C85     1.397   .     A
C84    H100    1.084   .     S
C85    H101    1.082   .     S
C86    N87     1.361   .     A
C86    N91     1.358   1_554 A
N87    N88     1.332   1_554 A
N88    C89     1.360   .     A
N88    N87     1.332   1_556 A
C89    N90     1.360   .     A
C89    C92     1.483   .     S
N90    N91     1.329   .     A
N91    C86     1.358   1_556 A
C92    C93     1.403   .     A
C92    C97     1.410   .     A
C93    C94     1.392   .     A
C93    H102    1.083   .     S
C94    C95     1.405   .     A
C94    H103    1.084   .     S
C95    C96     1.403   .     A
C96    C97     1.405   .     A
C96    H104    1.082   .     S
C97    H105    1.082   .     S
H98    C81     1.082   1_556 S
C106   C107    1.402   .     A
C106   C111    1.401   .     A
C106   C112    1.467   .     S
C107   C108    1.399   .     A
C107   H124    1.083   .     S
C108   C109    1.406   .     A
C108   H125    1.083   .     S
C109   C110    1.405   .     A
C110   C111    1.398   .     A
C110   H126    1.084   .     S
C111   H127    1.083   .     S
C112   N113    1.355   .     A
C112   N117    1.357   .     A
N113   N114    1.332   .     A
N114   C115    1.361   .     A
C115   N116    1.358   .     A
C115   C118    1.484   .     S
N116   N117    1.332   .     A
C118   C119    1.410   .     A
C118   C123    1.405   .     A
C119   H128    1.083   .     S
C119   C120    1.402   1_545 A
C120   C121    1.402   .     A
C120   H129    1.083   .     S
C120   C119    1.402   1_565 A
C121   C122    1.404   1_565 A
C122   C123    1.394   .     A
C122   C121    1.404   1_545 A
C122   H130    1.083   1_545 S
C123   H131    1.083   .     S
H130   C122    1.083   1_565 S
C132   C133    1.409   .     A
C132   C137    1.403   .     A
C132   C138    1.479   .     S
C133   C134    1.398   .     A
C133   H150    1.082   .     S
C134   C135    1.401   .     A
C134   H151    1.083   .     S
C135   C136    1.404   .     A
C136   C137    1.392   .     A
C136   H152    1.084   .     S
C137   H153    1.082   .     S
C138   N139    1.359   .     A
C138   N143    1.355   .     A
N139   N140    1.334   .     A
N140   C141    1.356   .     A
C141   N142    1.358   .     A
C141   C144    1.481   .     S
N142   N143    1.331   .     A
C144   C145    1.402   .     A
C144   C149    1.411   .     A
C145   C146    1.387   .     A
C145   H154    1.083   .     S
C146   C147    1.403   .     A
C146   H155    1.084   .     S
C147   C148    1.403   .     A
C148   C149    1.406   .     A
C148   H156    1.083   .     S
C149   H157    1.083   .     S
C158   C159    1.411   .     A
C158   C163    1.403   .     A
C158   C164    1.485   .     S
C159   C160    1.409   .     A
C159   H176    1.083   .     S
C160   C161    1.405   .     A
C160   H177    1.083   .     S
C161   C162    1.402   .     A
C162   C163    1.388   .     A
C162   H178    1.083   .     S
C163   H179    1.083   1_545 S
C164   N169    1.360   .     A
C164   N165    1.358   1_545 A
N165   N166    1.329   .     A
N165   C164    1.358   1_565 A
N166   C167    1.356   .     A
C167   C170    1.484   .     S
C167   N168    1.361   1_565 A
N168   N169    1.336   .     A
N168   C167    1.361   1_545 A
C170   C171    1.408   .     A
C170   C175    1.406   .     A
C171   H180    1.083   .     S
C171   C172    1.403   1_556 A
C172   C173    1.404   .     A
C172   H181    1.083   .     S
C172   C171    1.403   1_554 A
C173   C174    1.402   .     A
C174   H182    1.084   .     S
C174   C175    1.394   1_554 A
C175   H183    1.083   .     S
C175   C174    1.394   1_556 A
H179   C163    1.083   1_565 S
C184   C185    1.408   .     A
C184   C189    1.407   .     A
C184   C190    1.485   .     S
C185   C186    1.396   .     A
C185   H202    1.082   1_545 S
C186   C187    1.400   .     A
C186   H203    1.083   .     S
C187   C188    1.405   .     A
C188   C189    1.402   .     A
C188   H204    1.084   .     S
C189   H205    1.083   .     S
C190   N191    1.361   .     A
C190   N195    1.357   1_545 A
N191   N192    1.336   .     A
N192   C193    1.360   1_545 A
C193   N194    1.358   .     A
C193   C196    1.485   .     S
C193   N192    1.360   1_565 A
N194   N195    1.330   .     A
N195   C190    1.357   1_565 A
C196   C197    1.404   .     A
C196   C201    1.410   .     A
C197   C198    1.391   .     A
C197   H206    1.083   .     S
C198   C199    1.404   .     A
C198   H207    1.083   .     S
C199   C200    1.404   .     A
C200   C201    1.407   .     A
C200   H208    1.083   .     S
C201   H209    1.082   .     S
H202   C185    1.082   1_565 S
C210   C211    1.409   .     A
C210   C215    1.407   .     A
C210   C216    1.482   .     S
C211   C212    1.395   .     A
C211   H228    1.083   .     S
C212   C213    1.397   .     A
C212   H229    1.083   .     S
C213   C214    1.402   .     A
C214   C215    1.400   .     A
C214   H230    1.084   .     S
C215   H231    1.083   .     S
C216   N217    1.361   .     A
C216   N221    1.356   .     A
N217   N218    1.335   .     A
N218   C219    1.360   .     A
C219   N220    1.358   .     A
C219   C222    1.484   .     S
N220   N221    1.329   .     A
C222   C223    1.405   .     A
C222   C227    1.410   .     A
C223   C224    1.390   .     A
C223   H232    1.083   .     S
C224   C225    1.400   .     A
C224   H233    1.084   .     S
C225   C226    1.402   .     A
C226   C227    1.405   .     A
C226   H234    1.083   .     S
C227   H235    1.083   .     S
C236   C237    1.408   .     A
C236   C241    1.408   .     A
C236   C242    1.489   .     S
C237   H254    1.083   .     S
C237   C238    1.403   1_554 A
C238   C239    1.405   .     A
C238   H255    1.083   .     S
C238   C237    1.403   1_556 A
C239   C240    1.403   .     A
C240   H256    1.083   .     S
C240   C241    1.397   1_556 A
C241   H257    1.083   .     S
C241   C240    1.397   1_554 A
C242   N243    1.357   .     A
C242   N247    1.361   .     A
N243   N244    1.331   .     A
N244   C245    1.359   .     A
C245   N246    1.360   .     A
C245   C248    1.489   .     S
N246   N247    1.335   .     A
C248   C249    1.411   .     A
C248   C253    1.406   .     A
C249   C250    1.407   .     A
C249   H258    1.083   .     S
C250   C251    1.404   .     A
C250   H259    1.083   .     S
C251   C252    1.402   .     A
C252   C253    1.394   .     A
C252   H260    1.083   .     S
C253   H261    1.082   .     S
C262   C263    1.407   .     A
C262   C267    1.407   .     A
C262   C268    1.482   .     S
C263   C264    1.398   .     A
C263   H280    1.083   .     S
C264   C265    1.403   .     A
C264   H281    1.084   .     S
C265   C266    1.404   .     A
C266   C267    1.398   .     A
C266   H282    1.083   .     S
C267   H283    1.083   .     S
C268   N269    1.361   .     A
C268   N273    1.359   .     A
N269   N270    1.331   .     A
N270   C271    1.359   .     A
C271   N272    1.360   .     A
C271   C274    1.481   .     S
N272   N273    1.329   .     A
C274   C275    1.406   .     A
C274   C279    1.408   .     A
C275   H284    1.083   .     S
C275   C276    1.395   1_455 A
C276   C277    1.404   .     A
C276   H285    1.084   .     S
C276   C275    1.395   1_655 A
C277   C278    1.402   .     A
C278   H286    1.083   .     S
C278   C279    1.400   1_655 A
C279   H287    1.082   .     S
C279   C278    1.400   1_455 A
C288   C289    1.405   .     A
C288   C293    1.410   .     A
C288   C294    1.485   .     S
C289   H306    1.083   .     S
C289   C290    1.388   1_565 A
C290   C291    1.401   .     A
C290   H307    1.084   .     S
C290   C289    1.388   1_545 A
C291   C292    1.404   1_545 A
C292   C293    1.407   .     A
C292   H308    1.083   .     S
C292   C291    1.404   1_565 A
C293   H309    1.082   .     S
C294   N295    1.361   .     A
C294   N299    1.356   .     A
N295   N296    1.337   1_655 A
N296   C297    1.361   .     A
N296   N295    1.337   1_455 A
C297   N298    1.356   .     A
C297   C300    1.485   .     S
N298   N299    1.327   1_455 A
N299   N298    1.327   1_655 A
C300   C301    1.406   .     A
C300   C305    1.410   .     A
C301   C302    1.389   .     A
C301   H310    1.083   .     S
C302   C303    1.399   .     A
C302   H311    1.083   .     S
C303   C304    1.404   .     A
C304   C305    1.407   .     A
C304   H312    1.083   .     S
C305   H313    1.083   .     S
C314   C315    1.409   .     A
C314   C319    1.405   .     A
C314   C320    1.482   1_455 S
C315   C316    1.402   .     A
C315   H332    1.083   .     S
C316   C317    1.403   .     A
C316   H333    1.083   .     S
C317   C318    1.402   .     A
C318   C319    1.392   .     A
C318   H334    1.083   .     S
C319   H335    1.083   .     S
C320   N321    1.358   .     A
C320   N325    1.359   .     A
C320   C314    1.482   1_655 S
N321   N322    1.330   .     A
N322   C323    1.357   .     A
C323   N324    1.360   .     A
C323   C326    1.481   .     S
N324   N325    1.333   .     A
C326   C327    1.406   .     A
C326   C331    1.407   .     A
C327   C328    1.399   .     A
C327   H336    1.083   .     S
C328   C329    1.401   .     A
C328   H337    1.077   .     S
C329   C330    1.401   .     A
C330   C331    1.396   .     A
C330   H338    1.083   .     S
C331   H339    1.083   .     S
C340   C341    1.405   .     A
C340   C345    1.410   1_554 A
C340   C346    1.487   1_554 S
C341   C342    1.397   .     A
C341   H358    1.082   .     S
C342   C343    1.405   .     A
C342   H359    1.083   .     S
C343   C344    1.403   1_554 A
C344   C345    1.402   .     A
C344   H360    1.084   .     S
C344   C343    1.403   1_556 A
C345   H361    1.082   .     S
C345   C340    1.410   1_556 A
C346   N347    1.357   .     A
C346   C340    1.487   1_556 S
C346   N351    1.362   1_556 A
N347   N348    1.330   .     A
N348   C349    1.360   .     A
C349   C352    1.486   .     S
C349   N350    1.358   1_556 A
N350   N351    1.334   .     A
N350   C349    1.358   1_554 A
N351   C346    1.362   1_554 A
C352   C357    1.402   .     A
C352   C353    1.411   1_655 A
C353   C354    1.408   .     A
C353   C352    1.411   1_455 A
C353   H362    1.082   1_556 S
C354   C355    1.405   .     A
C354   H363    1.083   .     S
C355   C356    1.406   .     A
C356   H364    1.084   .     S
C356   C357    1.390   1_455 A
C357   H365    1.082   .     S
C357   C356    1.390   1_655 A
H362   C353    1.082   1_554 S
C366   C367    1.404   .     A
C366   C371    1.410   .     A
C366   C372    1.482   .     S
C367   C368    1.391   .     A
C367   H384    1.083   .     S
C368   C369    1.403   .     A
C368   H385    1.084   .     S
C369   C370    1.402   .     A
C370   C371    1.403   .     A
C370   H386    1.083   .     S
C371   H387    1.082   .     S
C372   N373    1.358   .     A
C372   N377    1.358   .     A
N373   N374    1.333   .     A
N374   C375    1.360   .     A
C375   N376    1.357   .     A
C375   C378    1.482   .     S
N376   N377    1.330   .     A
C378   C379    1.408   .     A
C378   C383    1.406   .     A
C379   C380    1.396   .     A
C379   H388    1.082   .     S
C380   C381    1.401   .     A
C380   H389    1.083   .     S
C381   C382    1.405   .     A
C382   C383    1.397   .     A
C382   H390    1.083   .     S
C383   H391    1.083   .     S
