data_lcy+N155+E1
_audit_creation_date              2025-01-21
_audit_creation_method            'Materials Studio'
_symmetry_space_group_name_H-M    'P1'
_symmetry_Int_Tables_number       1
_symmetry_cell_setting            triclinic
loop_
_symmetry_equiv_pos_as_xyz
  x,y,z
_cell_length_a                    32.7100
_cell_length_b                    32.4981
_cell_length_c                    33.3470
_cell_angle_alpha                 91.5019
_cell_angle_beta                  97.6544
_cell_angle_gamma                 96.8273
loop_
_atom_site_label
_atom_site_type_symbol
_atom_site_fract_x
_atom_site_fract_y
_atom_site_fract_z
_atom_site_U_iso_or_equiv
_atom_site_adp_type
_atom_site_occupancy
C0     C     0.18904   0.58042   0.81376   0.00000  Uiso   1.00
Ho1    Ho    0.14519   0.60367   0.86696   0.00000  Uiso   1.00
C2     C     0.03300   0.65780   0.96540   0.00000  Uiso   1.00
Ho3    Ho    0.08686   0.63018   0.92460   0.00000  Uiso   1.00
O4     O     0.14939   0.57463   0.80901   0.00000  Uiso   1.00
O5     O     0.20582   0.59753   0.84810   0.00000  Uiso   1.00
O6     O     0.11662   0.54068   0.87659   0.00000  Uiso   1.00
O7     O     0.07955   0.59122   0.86873   0.00000  Uiso   1.00
C8     C     0.08088   0.54900   0.87289   0.00000  Uiso   1.00
C9     C     0.16369   0.67307   0.93348   0.00000  Uiso   1.00
O10    O     0.15399   0.55802   0.91791   0.00000  Uiso   1.00
O11    O     0.11028   0.58037   0.96157   0.00000  Uiso   1.00
O12    O     0.07208   0.66500   0.97712   0.00000  Uiso   1.00
O13    O     0.02334   0.63390   0.93394   0.00000  Uiso   1.00
O14    O     0.13300   0.68763   0.93971   0.00000  Uiso   1.00
O15    O     0.15377   0.63204   0.92614   0.00000  Uiso   1.00
O16    O     0.08066   0.67731   0.87871   0.00000  Uiso   1.00
O17    O     0.13000   0.66237   0.83898   0.00000  Uiso   1.00
C18    C     0.10203   0.68469   0.84901   0.00000  Uiso   1.00
C19    C     0.13880   0.55790   0.95290   0.00000  Uiso   1.00
C20    C     0.59013   0.79394   0.18171   0.00000  Uiso   1.00
Ho21   Ho    0.61662   0.85270   0.14099   0.00000  Uiso   1.00
C22    C     0.68001   0.96710   0.03849   0.00000  Uiso   1.00
Ho23   Ho    0.65037   0.91765   0.09008   0.00000  Uiso   1.00
O24    O     0.57329   0.79971   0.14527   0.00000  Uiso   1.00
O25    O     0.62038   0.82185   0.19747   0.00000  Uiso   1.00
O26    O     0.59569   0.86838   0.07791   0.00000  Uiso   1.00
O27    O     0.60020   0.86683   0.07876   0.00000  Uiso   1.00
C28    C     0.56146   0.88030   0.07156   0.00000  Uiso   1.00
C29    C     0.69768   0.93659   0.15777   0.00000  Uiso   1.00
O30    O     0.57976   0.90234   0.15729   0.00000  Uiso   1.00
O31    O     0.60608   0.95303   0.11637   0.00000  Uiso   1.00
O32    O     0.69575   0.96949   0.07602   0.00000  Uiso   1.00
O33    O     0.64680   0.94208   0.03070   0.00000  Uiso   1.00
O34    O     0.70271   0.95603   0.12717   0.00000  Uiso   1.00
O35    O     0.66594   0.90390   0.15077   0.00000  Uiso   1.00
O36    O     0.68963   0.87013   0.07742   0.00000  Uiso   1.00
O37    O     0.66424   0.81928   0.11762   0.00000  Uiso   1.00
C38    C     0.68966   0.83393   0.09304   0.00000  Uiso   1.00
C39    C     0.58256   0.93975   0.14328   0.00000  Uiso   1.00
C40    C     0.80078   0.20951   0.57438   0.00000  Uiso   1.00
Ho41   Ho    0.85713   0.16517   0.60479   0.00000  Uiso   1.00
C42    C     0.94957   0.04370   0.66601   0.00000  Uiso   1.00
Ho43   Ho    0.91184   0.10515   0.63783   0.00000  Uiso   1.00
O44    O     0.80319   0.17260   0.56153   0.00000  Uiso   1.00
O45    O     0.82984   0.22356   0.60276   0.00000  Uiso   1.00
O46    O     0.81036   0.12831   0.56070   0.00000  Uiso   1.00
O47    O     0.86847   0.10563   0.58313   0.00000  Uiso   1.00
C48    C     0.82993   0.09856   0.55915   0.00000  Uiso   1.00
C49    C     0.91696   0.17146   0.68888   0.00000  Uiso   1.00
O50    O     0.90681   0.17722   0.56513   0.00000  Uiso   1.00
O51    O     0.95367   0.13605   0.59835   0.00000  Uiso   1.00
O52    O     0.95851   0.08067   0.68135   0.00000  Uiso   1.00
O53    O     0.92280   0.04074   0.63454   0.00000  Uiso   1.00
O54    O     0.92728   0.13834   0.69910   0.00000  Uiso   1.00
O55    O     0.91155   0.17190   0.64795   0.00000  Uiso   1.00
O56    O     0.85876   0.08736   0.66905   0.00000  Uiso   1.00
O57    O     0.82051   0.13983   0.65213   0.00000  Uiso   1.00
C58    C     0.82819   0.10797   0.67305   0.00000  Uiso   1.00
C59    C     0.94299   0.16259   0.57101   0.00000  Uiso   1.00
C60    C     0.38624   0.26753   0.29767   0.00000  Uiso   1.00
Ho61   Ho    0.36651   0.33065   0.33804   0.00000  Uiso   1.00
C62    C     0.34373   0.44518   0.45897   0.00000  Uiso   1.00
Ho63   Ho    0.35311   0.39505   0.40046   0.00000  Uiso   1.00
O64    O     0.40682   0.28331   0.33072   0.00000  Uiso   1.00
O65    O     0.35503   0.28640   0.28512   0.00000  Uiso   1.00
O66    O     0.41376   0.30000   0.37658   0.00000  Uiso   1.00
O67    O     0.40315   0.36176   0.38976   0.00000  Uiso   1.00
C68    C     0.42201   0.32798   0.40253   0.00000  Uiso   1.00
C69    C     0.32443   0.41043   0.32397   0.00000  Uiso   1.00
O70    O     0.40918   0.38220   0.31790   0.00000  Uiso   1.00
O71    O     0.39957   0.43179   0.36647   0.00000  Uiso   1.00
O72    O     0.31665   0.43769   0.42724   0.00000  Uiso   1.00
O73    O     0.37690   0.42821   0.45767   0.00000  Uiso   1.00
O74    O     0.34414   0.43612   0.34868   0.00000  Uiso   1.00
O75    O     0.31914   0.37228   0.34080   0.00000  Uiso   1.00
O76    O     0.31896   0.34066   0.42363   0.00000  Uiso   1.00
O77    O     0.32331   0.29309   0.37269   0.00000  Uiso   1.00
C78    C     0.30861   0.30467   0.40496   0.00000  Uiso   1.00
C79    C     0.41730   0.41934   0.33564   0.00000  Uiso   1.00
C80    C     0.45515   0.80825   0.00578   0.00000  Uiso   1.00
C81    C     0.46475   0.80576   0.04785   0.00000  Uiso   1.00
C82    C     0.49987   0.82920   0.06865   0.00000  Uiso   1.00
C83    C     0.52640   0.85486   0.04774   0.00000  Uiso   1.00
C84    C     0.51773   0.85704   1.00564   0.00000  Uiso   1.00
C85    C     0.48192   0.83397   0.98469   0.00000  Uiso   1.00
C86    C     0.41577   0.78576   0.98518   0.00000  Uiso   1.00
C87    C     0.38616   0.80741   0.96316   0.00000  Uiso   1.00
C88    C     0.34585   0.78780   0.95041   0.00000  Uiso   1.00
C89    C     0.33468   0.74637   0.95967   0.00000  Uiso   1.00
C90    C     0.36512   0.72408  -0.02057   0.00000  Uiso   1.00
C91    C     0.40530   0.74363  -0.00788   0.00000  Uiso   1.00
C92    C     0.29071   0.72762   0.95228   0.00000  Uiso   1.00
C93    C     0.27214   0.70915   0.98410   0.00000  Uiso   1.00
C94    C     0.23032   0.69250   0.97807   0.00000  Uiso   1.00
C95    C     0.20638   0.69409   0.94018   0.00000  Uiso   1.00
C96    C     0.22490   0.71168   0.90804   0.00000  Uiso   1.00
C97    C     0.26678   0.72875   0.91415   0.00000  Uiso   1.00
H98    H     0.44421   0.78682   0.06485   0.00000  Uiso   1.00
H99    H     0.50599   0.82786   0.10131   0.00000  Uiso   1.00
H100   H     0.53815   0.87696   0.98932   0.00000  Uiso   1.00
H101   H     0.47498   0.83631   0.95224   0.00000  Uiso   1.00
H102   H     0.39347   0.84013   0.95809   0.00000  Uiso   1.00
H103   H     0.32274   0.80568   0.93551   0.00000  Uiso   1.00
H104   H     0.35738   0.69188  -0.01377   0.00000  Uiso   1.00
H105   H     0.42786   0.72635   0.00877   0.00000  Uiso   1.00
H106   H     0.28993   0.70808   0.01379   0.00000  Uiso   1.00
H107   H     0.21672   0.67795   1.00287   0.00000  Uiso   1.00
H108   H     0.20715   0.71166   0.87820   0.00000  Uiso   1.00
H109   H     0.28071   0.74221   0.88907   0.00000  Uiso   1.00
C110   C     0.42768   0.16317   0.24034   0.00000  Uiso   1.00
C111   C     0.39498   0.18215   0.21993   0.00000  Uiso   1.00
C112   C     0.38039   0.21582   0.23851   0.00000  Uiso   1.00
C113   C     0.39844   0.23060   0.27762   0.00000  Uiso   1.00
C114   C     0.42986   0.21006   0.29836   0.00000  Uiso   1.00
C115   C     0.44438   0.17685   0.27988   0.00000  Uiso   1.00
C116   C     0.44674   0.13079   0.22040   0.00000  Uiso   1.00
C117   C     0.48771   0.13950   0.21224   0.00000  Uiso   1.00
C118   C     0.50843   0.10804   0.19825   0.00000  Uiso   1.00
C119   C     0.48884   0.06692   0.19292   0.00000  Uiso   1.00
C120   C     0.44720   0.05859   0.20002   0.00000  Uiso   1.00
C121   C     0.42628   0.09035   0.21354   0.00000  Uiso   1.00
C122   C     0.51230   0.03287   0.18140   0.00000  Uiso   1.00
C123   C     0.49255   0.99891   0.15610   0.00000  Uiso   1.00
C124   C     0.51506   0.96741   0.14499   0.00000  Uiso   1.00
C125   C     0.55766   0.96965   0.15857   0.00000  Uiso   1.00
C126   C     0.57745   1.00301   0.18406   0.00000  Uiso   1.00
C127   C     0.55497   0.03413   0.19570   0.00000  Uiso   1.00
H128   H     0.38169   0.17172   0.18937   0.00000  Uiso   1.00
H129   H     0.35584   0.23081   0.22209   0.00000  Uiso   1.00
H130   H     0.44375   0.22002   0.32888   0.00000  Uiso   1.00
H131   H     0.46917   0.16209   0.29627   0.00000  Uiso   1.00
H132   H     0.50393   0.17062   0.21750   0.00000  Uiso   1.00
H133   H     0.54001   0.11595   0.19211   0.00000  Uiso   1.00
H134   H     0.43127   0.02729   0.19662   0.00000  Uiso   1.00
H135   H     0.39482   0.08302   0.22026   0.00000  Uiso   1.00
H136   H     0.46000   0.99724   0.14395   0.00000  Uiso   1.00
H137   H     0.49957   0.94209   0.12471   0.00000  Uiso   1.00
H138   H     0.61043   1.00512   0.19466   0.00000  Uiso   1.00
H139   H     0.57116   0.05921   0.21586   0.00000  Uiso   1.00
C140   C     0.69237   0.26672   0.53451   0.00000  Uiso   1.00
C141   C     0.72196   0.28603   0.56582   0.00000  Uiso   1.00
C142   C     0.75859   0.26864   0.57783   0.00000  Uiso   1.00
C143   C     0.76559   0.23152   0.55898   0.00000  Uiso   1.00
C144   C     0.73616   0.21272   0.52728   0.00000  Uiso   1.00
C145   C     0.69995   0.23018   0.51511   0.00000  Uiso   1.00
C146   C     0.65339   0.28415   0.52174   0.00000  Uiso   1.00
C147   C     0.64195   0.29109   0.48070   0.00000  Uiso   1.00
C148   C     0.60391   0.30497   0.46772   0.00000  Uiso   1.00
C149   C     0.57633   0.31134   0.49543   0.00000  Uiso   1.00
C150   C     0.58769   0.30454   0.53656   0.00000  Uiso   1.00
C151   C     0.62632   0.29151   0.54976   0.00000  Uiso   1.00
C152   C     0.53448   0.32128   0.48009   0.00000  Uiso   1.00
C153   C     0.49963   0.29255   0.48344   0.00000  Uiso   1.00
C154   C     0.46144   0.29624   0.46022   0.00000  Uiso   1.00
C155   C     0.45750   0.32946   0.43462   0.00000  Uiso   1.00
C156   C     0.49138   0.36025   0.43415   0.00000  Uiso   1.00
C157   C     0.52987   0.35584   0.45631   0.00000  Uiso   1.00
H158   H     0.71665   0.31442   0.58092   0.00000  Uiso   1.00
H159   H     0.78085   0.28352   0.60239   0.00000  Uiso   1.00
H160   H     0.74058   0.18382   0.51248   0.00000  Uiso   1.00
H161   H     0.67725   0.21454   0.49123   0.00000  Uiso   1.00
H162   H     0.66229   0.28517   0.45866   0.00000  Uiso   1.00
H163   H     0.59531   0.30926   0.43576   0.00000  Uiso   1.00
H164   H     0.56651   0.30884   0.55822   0.00000  Uiso   1.00
H165   H     0.63446   0.28569   0.58149   0.00000  Uiso   1.00
H166   H     0.50286   0.26551   0.50136   0.00000  Uiso   1.00
H167   H     0.43572   0.27201   0.46045   0.00000  Uiso   1.00
H168   H     0.48913   0.38557   0.41374   0.00000  Uiso   1.00
H169   H     0.55663   0.37797   0.45300   0.00000  Uiso   1.00
C170   C     0.77658   0.07056   0.78005   0.00000  Uiso   1.00
C171   C     0.77064   0.10994   0.76460   0.00000  Uiso   1.00
C172   C     0.78450   0.12193   0.72793   0.00000  Uiso   1.00
C173   C     0.80346   0.09435   0.70542   0.00000  Uiso   1.00
C174   C     0.80623   0.05434   0.71908   0.00000  Uiso   1.00
C175   C     0.79431   0.04310   0.75593   0.00000  Uiso   1.00
C176   C     0.76606   0.05800   0.82108   0.00000  Uiso   1.00
C177   C     0.76511   1.01622   0.83184   0.00000  Uiso   1.00
C178   C     0.75809   1.00419   0.87017   0.00000  Uiso   1.00
C179   C     0.74802   0.03244   0.89865   0.00000  Uiso   1.00
C180   C     0.74855   0.07419   0.88862   0.00000  Uiso   1.00
C181   C     0.75805   0.08696   0.85061   0.00000  Uiso   1.00
C182   C     0.73289   1.01681   0.93634   0.00000  Uiso   1.00
C183   C     0.74021   0.04020   0.97343   0.00000  Uiso   1.00
C184   C     0.72397   1.02453   1.00782   0.00000  Uiso   1.00
C185   C     0.69976   0.98567   0.00500   0.00000  Uiso   1.00
C186   C     0.69341   0.96227   0.96834   0.00000  Uiso   1.00
C187   C     0.70942   0.97760   0.93464   0.00000  Uiso   1.00
H188   H     0.75648   0.13222   0.78098   0.00000  Uiso   1.00
H189   H     0.78240   0.15330   0.71842   0.00000  Uiso   1.00
H190   H     0.82062   0.03221   0.70251   0.00000  Uiso   1.00
H191   H     0.80153   1.01315   0.76548   0.00000  Uiso   1.00
H192   H     0.76896   0.99156   0.81102   0.00000  Uiso   1.00
H193   H     0.75944   0.97197   0.87693   0.00000  Uiso   1.00
H194   H     0.74058   0.09684   0.90968   0.00000  Uiso   1.00
H195   H     0.75873   0.11953   0.84486   0.00000  Uiso   1.00
H196   H     0.75854   0.07031   0.97588   0.00000  Uiso   1.00
H197   H     0.72949   0.04286   0.03602   0.00000  Uiso   1.00
H198   H     0.67589   0.93159   0.96559   0.00000  Uiso   1.00
H199   H     0.70248   0.95867   0.90687   0.00000  Uiso   1.00
C200   C     0.80189   0.03381   0.44424   0.00000  Uiso   1.00
C201   C     0.83474   0.06624   0.45278   0.00000  Uiso   1.00
C202   C     0.84538   0.08423   0.49149   0.00000  Uiso   1.00
C203   C     0.82286   0.07145   0.52263   0.00000  Uiso   1.00
C204   C     0.79065   0.03862   0.51530   0.00000  Uiso   1.00
C205   C     0.78100   1.01903   0.47655   0.00000  Uiso   1.00
C206   C     0.78987   0.01794   0.40398   0.00000  Uiso   1.00
C207   C     0.77490   0.97584   0.39517   0.00000  Uiso   1.00
C208   C     0.76460   0.96054   0.35501   0.00000  Uiso   1.00
C209   C     0.76707   0.98720   0.32255   0.00000  Uiso   1.00
C210   C     0.78113   0.02933   0.33140   0.00000  Uiso   1.00
C211   C     0.79279   0.04433   0.37130   0.00000  Uiso   1.00
C212   C     0.75260   0.97189   0.27988   0.00000  Uiso   1.00
C213   C     0.77000   0.99033   0.24715   0.00000  Uiso   1.00
C214   C     0.75303   0.97866   0.20706   0.00000  Uiso   1.00
C215   C     0.71905   0.94773   0.19899   0.00000  Uiso   1.00
C216   C     0.70276   0.92819   0.23153   0.00000  Uiso   1.00
C217   C     0.71904   0.94030   0.27138   0.00000  Uiso   1.00
H218   H     0.85277   0.07776   0.42962   0.00000  Uiso   1.00
H219   H     0.86992   0.11004   0.49664   0.00000  Uiso   1.00
H220   H     0.77241   1.02906   0.53902   0.00000  Uiso   1.00
H221   H     0.75513   0.99462   0.47140   0.00000  Uiso   1.00
H222   H     0.77293   0.95415   0.41911   0.00000  Uiso   1.00
H223   H     0.75486   0.92765   0.34949   0.00000  Uiso   1.00
H224   H     0.78201   0.05119   0.30757   0.00000  Uiso   1.00
H225   H     0.80202   0.07731   0.37638   0.00000  Uiso   1.00
H226   H     0.79638   0.01416   0.25245   0.00000  Uiso   1.00
H227   H     0.76599   0.99411   0.18251   0.00000  Uiso   1.00
H228   H     0.67612   0.90447   0.22639   0.00000  Uiso   1.00
H229   H     0.70407   0.92589   0.29546   0.00000  Uiso   1.00
C230   C     0.31419   0.50154   0.56766   0.00000  Uiso   1.00
C231   C     0.29364   0.51045   0.52967   0.00000  Uiso   1.00
C232   C     0.30429   0.49363   0.49396   0.00000  Uiso   1.00
C233   C     0.33609   0.46807   0.49559   0.00000  Uiso   1.00
C234   C     0.35802   0.46090   0.53346   0.00000  Uiso   1.00
C235   C     0.34720   0.47751   0.56914   0.00000  Uiso   1.00
C236   C     0.29870   0.51386   0.60550   0.00000  Uiso   1.00
C237   C     0.32606   0.53092   0.63963   0.00000  Uiso   1.00
C238   C     0.31072   0.54119   0.67548   0.00000  Uiso   1.00
C239   C     0.26785   0.53447   0.67762   0.00000  Uiso   1.00
C240   C     0.24079   0.51675   0.64373   0.00000  Uiso   1.00
C241   C     0.25600   0.50666   0.60810   0.00000  Uiso   1.00
C242   C     0.25038   0.54796   0.71387   0.00000  Uiso   1.00
C243   C     0.21732   0.57195   0.70883   0.00000  Uiso   1.00
C244   C     0.19826   0.58281   0.74179   0.00000  Uiso   1.00
C245   C     0.21218   0.57052   0.78066   0.00000  Uiso   1.00
C246   C     0.24594   0.54742   0.78633   0.00000  Uiso   1.00
C247   C     0.26491   0.53604   0.75297   0.00000  Uiso   1.00
H248   H     0.26866   0.52968   0.52769   0.00000  Uiso   1.00
H249   H     0.28707   0.49978   0.46517   0.00000  Uiso   1.00
H250   H     0.38210   0.44057   0.53570   0.00000  Uiso   1.00
H251   H     0.36323   0.46978   0.59798   0.00000  Uiso   1.00
H252   H     0.35914   0.53689   0.63832   0.00000  Uiso   1.00
H253   H     0.33211   0.55525   0.70114   0.00000  Uiso   1.00
H254   H     0.20771   0.51063   0.64495   0.00000  Uiso   1.00
H255   H     0.23438   0.49256   0.58268   0.00000  Uiso   1.00
H256   H     0.20601   0.58207   0.67916   0.00000  Uiso   1.00
H257   H     0.17246   0.60092   0.73691   0.00000  Uiso   1.00
H258   H     0.25645   0.53687   0.81603   0.00000  Uiso   1.00
H259   H     0.28991   0.51689   0.75743   0.00000  Uiso   1.00
C260   C     0.19286   0.49651   0.05509   0.00000  Uiso   1.00
C261   C     0.17024   0.47247   0.02192   0.00000  Uiso   1.00
C262   C     0.15279   0.49180   0.98759   0.00000  Uiso   1.00
C263   C     0.15807   0.53522   0.98640   0.00000  Uiso   1.00
C264   C     0.18100   0.55887   1.01937   0.00000  Uiso   1.00
C265   C     0.19829   0.53977   0.05331   0.00000  Uiso   1.00
C266   C     0.20969   0.47757   0.09258   0.00000  Uiso   1.00
C267   C     0.19635   0.48830   0.12932   0.00000  Uiso   1.00
C268   C     0.21525   0.47484   0.16582   0.00000  Uiso   1.00
C269   C     0.24789   0.45045   0.16627   0.00000  Uiso   1.00
C270   C     0.26069   0.43877   0.12950   0.00000  Uiso   1.00
C271   C     0.24173   0.45235   0.09279   0.00000  Uiso   1.00
C272   C     0.26979   0.43946   0.20543   0.00000  Uiso   1.00
C273   C     0.26947   0.39792   0.21602   0.00000  Uiso   1.00
C274   C     0.28778   0.38819   0.25451   0.00000  Uiso   1.00
C275   C     0.30719   0.41992   0.28254   0.00000  Uiso   1.00
C276   C     0.30856   0.46130   0.27130   0.00000  Uiso   1.00
C277   C     0.28969   0.47100   0.23326   0.00000  Uiso   1.00
H278   H     0.16513   0.43903   0.02316   0.00000  Uiso   1.00
H279   H     0.13437   0.47311   0.96278   0.00000  Uiso   1.00
H280   H     0.18525   0.59241   1.01889   0.00000  Uiso   1.00
H281   H     0.21576   0.55885   0.07840   0.00000  Uiso   1.00
H282   H     0.17175   0.50781   0.12970   0.00000  Uiso   1.00
H283   H     0.20478   0.48393   0.19385   0.00000  Uiso   1.00
H284   H     0.28636   0.42057   0.12942   0.00000  Uiso   1.00
H285   H     0.25316   0.44467   0.06485   0.00000  Uiso   1.00
H286   H     0.25400   0.37323   0.19496   0.00000  Uiso   1.00
H287   H     0.28628   0.35599   0.26249   0.00000  Uiso   1.00
H288   H     0.32337   0.48625   0.29234   0.00000  Uiso   1.00
H289   H     0.29034   0.50323   0.22562   0.00000  Uiso   1.00
C290   C     0.20034   0.24090   0.44473   0.00000  Uiso   1.00
C291   C     0.23174   0.26272   0.47284   0.00000  Uiso   1.00
C292   C     0.26882   0.28047   0.46053   0.00000  Uiso   1.00
C293   C     0.27519   0.27691   0.41983   0.00000  Uiso   1.00
C294   C     0.24492   0.25267   0.39221   0.00000  Uiso   1.00
C295   C     0.20767   0.23486   0.40459   0.00000  Uiso   1.00
C296   C     0.15864   0.22900   0.45653   0.00000  Uiso   1.00
C297   C     0.14065   0.18741   0.45499   0.00000  Uiso   1.00
C298   C     0.10221   0.17698   0.46897   0.00000  Uiso   1.00
C299   C     0.08137   0.20808   0.48435   0.00000  Uiso   1.00
C300   C     0.09880   0.24965   0.48434   0.00000  Uiso   1.00
C301   C     0.13702   0.25998   0.47061   0.00000  Uiso   1.00
C302   C     0.04426   0.19754   0.50487   0.00000  Uiso   1.00
C303   C     0.04601   0.21036   0.54562   0.00000  Uiso   1.00
C304   C     1.01215   0.20017   0.56635   0.00000  Uiso   1.00
C305   C     0.97549   0.17774   0.54660   0.00000  Uiso   1.00
C306   C     0.97301   0.16563   0.50550   0.00000  Uiso   1.00
C307   C     0.00746   0.17513   0.48478   0.00000  Uiso   1.00
H308   H     0.22680   0.26749   0.50403   0.00000  Uiso   1.00
H309   H     0.29173   0.29880   0.48240   0.00000  Uiso   1.00
H310   H     0.24861   0.25016   0.36045   0.00000  Uiso   1.00
H311   H     0.18352   0.21875   0.38234   0.00000  Uiso   1.00
H312   H     0.15705   0.16304   0.44448   0.00000  Uiso   1.00
H313   H     0.08969   0.14463   0.46946   0.00000  Uiso   1.00
H314   H     0.08314   0.27408   0.49588   0.00000  Uiso   1.00
H315   H     0.15009   0.29226   0.47144   0.00000  Uiso   1.00
H316   H     0.07415   0.22737   0.56173   0.00000  Uiso   1.00
H317   H     1.01478   0.20920   0.59817   0.00000  Uiso   1.00
H318   H     0.94509   0.14771   0.48995   0.00000  Uiso   1.00
H319   H     0.00544   0.16504   0.45328   0.00000  Uiso   1.00
C320   C     0.99592   0.93572   0.71763   0.00000  Uiso   1.00
C321   C     0.96238   0.93173   0.68624   0.00000  Uiso   1.00
C322   C     0.94764   0.96700   0.66945   0.00000  Uiso   1.00
C323   C     0.96626   0.00692   0.68358   0.00000  Uiso   1.00
C324   C     0.99925   0.01094   0.71538   0.00000  Uiso   1.00
C325   C     1.01398   0.97564   0.73226   0.00000  Uiso   1.00
C326   C     1.01208   0.89847   0.73531   0.00000  Uiso   1.00
C327   C     1.01951   0.89549   0.77738   0.00000  Uiso   1.00
C328   C     0.03558   0.86098   0.79440   0.00000  Uiso   1.00
C329   C     0.04599   0.82874   0.76986   0.00000  Uiso   1.00
C330   C     1.03826   0.83203   0.72744   0.00000  Uiso   1.00
C331   C     1.02091   0.86609   0.71045   0.00000  Uiso   1.00
C332   C     0.06413   0.79204   0.78863   0.00000  Uiso   1.00
C333   C     0.06088   0.75339   0.76716   0.00000  Uiso   1.00
C334   C     0.07598   0.71890   0.78580   0.00000  Uiso   1.00
C335   C     0.09365   0.72189   0.82653   0.00000  Uiso   1.00
C336   C     0.09761   0.76012   0.84786   0.00000  Uiso   1.00
C337   C     0.08402   0.79486   0.82903   0.00000  Uiso   1.00
H338   H     0.94716   0.90137   0.67515   0.00000  Uiso   1.00
H339   H     0.92119   0.96300   0.64577   0.00000  Uiso   1.00
H340   H     1.01370   0.04132   0.72707   0.00000  Uiso   1.00
H341   H     1.03990   0.97952   0.75644   0.00000  Uiso   1.00
H342   H     1.01222   0.91971   0.79720   0.00000  Uiso   1.00
H343   H     0.03914   0.85982   0.82698   0.00000  Uiso   1.00
H344   H     1.04606   0.80880   0.70697   0.00000  Uiso   1.00
H345   H     1.01530   0.86762   0.67780   0.00000  Uiso   1.00
H346   H     0.04542   0.74895   0.73639   0.00000  Uiso   1.00
H347   H     0.07186   0.68941   0.76900   0.00000  Uiso   1.00
H348   H     0.11074   0.76295   0.87953   0.00000  Uiso   1.00
H349   H     0.08899   0.82373   0.84678   0.00000  Uiso   1.00
C350   C    -0.00792   0.44519   0.83597   0.00000  Uiso   1.00
C351   C    -0.01380   0.48399   0.82006   0.00000  Uiso   1.00
C352   C     0.01224   0.51966   0.83598   0.00000  Uiso   1.00
C353   C     0.04519   0.51643   0.86686   0.00000  Uiso   1.00
C354   C     0.04896   0.47815   0.88464   0.00000  Uiso   1.00
C355   C     0.02233   0.44281   0.86951   0.00000  Uiso   1.00
C356   C     0.97170   0.40648   0.81436   0.00000  Uiso   1.00
C357   C     0.94588   0.37781   0.83335   0.00000  Uiso   1.00
C358   C     0.93139   0.33864   0.81487   0.00000  Uiso   1.00
C359   C     0.94273   0.32775   0.77726   0.00000  Uiso   1.00
C360   C     0.96795   0.35679   0.75798   0.00000  Uiso   1.00
C361   C     0.98238   0.39583   0.77640   0.00000  Uiso   1.00
C362   C     0.92961   0.28595   0.75807   0.00000  Uiso   1.00
C363   C     0.90815   0.28192   0.71868   0.00000  Uiso   1.00
C364   C     0.90183   0.24367   0.69748   0.00000  Uiso   1.00
C365   C     0.91726   0.20882   0.71503   0.00000  Uiso   1.00
C366   C     0.93605   0.21201   0.75555   0.00000  Uiso   1.00
C367   C     0.94221   0.25049   0.77700   0.00000  Uiso   1.00
H368   H    -0.03691   0.48625   0.79397   0.00000  Uiso   1.00
H369   H     0.00917   0.54888   0.82164   0.00000  Uiso   1.00
H370   H     0.07440   0.47502   0.90825   0.00000  Uiso   1.00
H371   H     1.02756   0.41301   0.88174   0.00000  Uiso   1.00
H372   H     0.93758   0.38560   0.86271   0.00000  Uiso   1.00
H373   H     0.91158   0.31680   0.82993   0.00000  Uiso   1.00
H374   H     0.97762   0.34867   0.72926   0.00000  Uiso   1.00
H375   H     1.00337   0.41706   0.76187   0.00000  Uiso   1.00
H376   H     0.89763   0.30878   0.70382   0.00000  Uiso   1.00
H377   H     0.88644   0.24181   0.66659   0.00000  Uiso   1.00
H378   H     0.94786   0.18546   0.76980   0.00000  Uiso   1.00
H379   H     0.95889   0.25313   0.80746   0.00000  Uiso   1.00
C380   C     0.78896   0.76842   0.06494   0.00000  Uiso   1.00
C381   C     0.77258   0.76146   0.10131   0.00000  Uiso   1.00
C382   C     0.73875   0.78122   0.10990   0.00000  Uiso   1.00
C383   C     0.72161   0.80879   0.08251   0.00000  Uiso   1.00
C384   C     0.73792   0.81522   0.04603   0.00000  Uiso   1.00
C385   C     0.77101   0.79501   0.03721   0.00000  Uiso   1.00
C386   C     0.82497   0.74872   0.05529   0.00000  Uiso   1.00
C387   C     0.82245   0.72740   1.01794   0.00000  Uiso   1.00
C388   C     0.85740   0.71289   1.00589   0.00000  Uiso   1.00
C389   C     0.89642   0.72067   1.03025   0.00000  Uiso   1.00
C390   C     0.89845   0.74074   0.06861   0.00000  Uiso   1.00
C391   C     0.86285   0.75420   0.08119   0.00000  Uiso   1.00
C392   C     0.93425   0.70827   1.01480   0.00000  Uiso   1.00
C393   C     0.96919   0.69878   0.04100   0.00000  Uiso   1.00
C394   C     0.00275   0.68400   1.02535   0.00000  Uiso   1.00
C395   C     0.00116   0.67732   0.98348   0.00000  Uiso   1.00
C396   C     0.96755   0.68858   0.95745   0.00000  Uiso   1.00
C397   C     0.93516   0.70483   0.97277   0.00000  Uiso   1.00
H398   H     0.78597   0.74084   0.12294   0.00000  Uiso   1.00
H399   H     0.72701   0.77614   0.13846   0.00000  Uiso   1.00
H400   H     0.72544   0.83639   1.02444   0.00000  Uiso   1.00
H401   H     0.78337   0.80094   1.00908   0.00000  Uiso   1.00
H402   H     0.79335   0.72252   0.99774   0.00000  Uiso   1.00
H403   H     0.85347   0.69588   0.97706   0.00000  Uiso   1.00
H404   H     0.92755   0.74737   0.08848   0.00000  Uiso   1.00
H405   H     0.86530   0.77054   0.11029   0.00000  Uiso   1.00
H406   H     0.97034   0.70145   0.07351   0.00000  Uiso   1.00
H407   H     0.02898   0.67623   0.04586   0.00000  Uiso   1.00
H408   H     0.96634   0.68491   0.92492   0.00000  Uiso   1.00
H409   H     0.91066   0.71423   0.95125   0.00000  Uiso   1.00
C410   C     0.55269   0.67923   0.23455   0.00000  Uiso   1.00
C411   C     0.58944   0.70378   0.25151   0.00000  Uiso   1.00
C412   C     0.60135   0.74200   0.23528   0.00000  Uiso   1.00
C413   C     0.57638   0.75610   0.20216   0.00000  Uiso   1.00
C414   C     0.53940   0.73146   0.18564   0.00000  Uiso   1.00
C415   C     0.52768   0.69341   0.20175   0.00000  Uiso   1.00
C416   C     0.54018   0.63855   0.25040   0.00000  Uiso   1.00
C417   C     0.54274   0.60205   0.22796   0.00000  Uiso   1.00
C418   C     0.52765   0.56347   0.24136   0.00000  Uiso   1.00
C419   C     0.50967   0.56098   0.27734   0.00000  Uiso   1.00
C420   C     0.50759   0.59772   0.29986   0.00000  Uiso   1.00
C421   C     0.52275   0.63618   0.28649   0.00000  Uiso   1.00
C422   C     0.49119   0.52069   0.29082   0.00000  Uiso   1.00
C423   C     0.49723   0.51178   0.33199   0.00000  Uiso   1.00
C424   C     0.47476   0.47723   0.34609   0.00000  Uiso   1.00
C425   C     0.44619   0.45067   0.31928   0.00000  Uiso   1.00
C426   C     0.44214   0.45775   0.27767   0.00000  Uiso   1.00
C427   C     0.46442   0.49267   0.26351   0.00000  Uiso   1.00
H428   H     0.60934   0.69285   0.27651   0.00000  Uiso   1.00
H429   H     0.63062   0.75980   0.24760   0.00000  Uiso   1.00
H430   H     0.51982   0.74125   0.15971   0.00000  Uiso   1.00
H431   H     0.49923   0.67480   0.18840   0.00000  Uiso   1.00
H432   H     0.55606   0.60355   0.19993   0.00000  Uiso   1.00
H433   H     0.52984   0.53563   0.22362   0.00000  Uiso   1.00
H434   H     0.49299   0.59675   0.32718   0.00000  Uiso   1.00
H435   H     0.51973   0.66418   0.30361   0.00000  Uiso   1.00
H436   H     0.51841   0.53234   0.35348   0.00000  Uiso   1.00
H437   H     0.47881   0.47186   0.37819   0.00000  Uiso   1.00
H438   H     0.41994   0.43783   0.25649   0.00000  Uiso   1.00
H439   H     0.45898   0.49899   0.23162   0.00000  Uiso   1.00
loop_
_geom_bond_atom_site_label_1
_geom_bond_atom_site_label_2
_geom_bond_distance
_geom_bond_site_symmetry_2
_ccdc_geom_bond_type
C0     O4      1.276   .     A
C0     O5      1.284   .     A
C0     C245    1.468   .     S
Ho1    O4      2.156   .     S
Ho1    O5      2.188   .     S
Ho1    O6      2.197   .     S
Ho1    O7      2.146   .     S
Ho1    O10     2.296   .     S
Ho1    O15     2.126   .     S
Ho1    O17     2.225   .     S
C2     O12     1.278   .     A
C2     O13     1.271   .     A
C2     C395    1.468   .     S
Ho3    O7      2.195   .     S
Ho3    O11     2.208   .     S
Ho3    O12     2.198   .     S
Ho3    O13     2.159   .     S
Ho3    O14     2.257   .     S
Ho3    O15     2.176   .     S
Ho3    O16     2.201   .     S
O6     C8      1.222   .     D
O7     C8      1.388   .     S
C8     C353    1.468   .     S
C9     O14     1.199   .     D
C9     O15     1.342   .     S
C9     C95     1.466   .     S
O10    C19     1.327   .     A
O11    C19     1.307   .     A
O16    C18     1.298   .     A
O17    C18     1.305   .     A
C18    C335    1.473   .     S
C19    C263    1.468   .     S
C20    O24     1.294   .     A
C20    O25     1.304   .     A
C20    C413    1.474   .     S
Ho21   O24     2.117   .     S
Ho21   O25     2.153   .     S
Ho21   O26     2.215   .     S
Ho21   O27     2.149   .     S
Ho21   O30     2.223   .     S
Ho21   O35     2.161   .     S
Ho21   O37     2.212   .     S
C22    O32     1.285   .     A
C22    O33     1.270   .     A
C22    C185    1.471   .     S
Ho23   O27     2.173   .     S
Ho23   O31     2.207   .     S
Ho23   O32     2.212   .     S
Ho23   O33     2.147   .     S
Ho23   O34     2.205   .     S
Ho23   O35     2.093   .     S
Ho23   O36     2.189   .     S
O26    C28     1.222   .     D
O27    C28     1.382   .     S
C28    C83     1.459   .     S
C29    O34     1.233   .     D
C29    O35     1.386   .     S
C29    C215    1.472   .     S
O30    C39     1.311   .     A
O31    C39     1.307   .     A
O36    C38     1.299   .     A
O37    C38     1.303   .     A
C38    C383    1.473   .     S
C39    C125    1.463   .     S
C40    O44     1.278   .     A
C40    O45     1.282   .     A
C40    C143    1.469   .     S
Ho41   O44     2.167   .     S
Ho41   O45     2.190   .     S
Ho41   O46     2.193   .     S
Ho41   O47     2.138   .     S
Ho41   O50     2.234   .     S
Ho41   O55     2.120   .     S
Ho41   O57     2.223   .     S
C42    O52     1.279   .     A
C42    O53     1.268   .     A
C42    C323    1.475   .     S
Ho43   O47     2.158   .     S
Ho43   O51     2.199   .     S
Ho43   O52     2.197   .     S
Ho43   O53     2.167   .     S
Ho43   O54     2.252   .     S
Ho43   O55     2.188   .     S
Ho43   O56     2.169   .     S
O46    C48     1.225   .     D
O47    C48     1.391   .     S
C48    C203    1.460   .     S
C49    O54     1.210   .     D
C49    O55     1.353   .     S
C49    C365    1.475   .     S
O50    C59     1.320   .     A
O51    C59     1.313   .     A
O56    C58     1.287   .     A
O57    C58     1.294   .     A
C58    C173    1.479   .     S
C59    C305    1.470   .     S
C60    O64     1.273   .     A
C60    O65     1.281   .     A
C60    C113    1.480   .     S
Ho61   O64     2.171   .     S
Ho61   O65     2.210   .     S
Ho61   O66     2.222   .     S
Ho61   O67     2.122   .     S
Ho61   O70     2.227   .     S
Ho61   O75     2.184   .     S
Ho61   O77     2.218   .     S
C62    O72     1.284   .     A
C62    O73     1.280   .     A
C62    C233    1.478   .     S
Ho63   O67     2.129   .     S
Ho63   O71     2.262   .     S
Ho63   O72     2.180   .     S
Ho63   O73     2.169   .     S
Ho63   O74     2.220   .     S
Ho63   O75     2.209   .     S
Ho63   O76     2.191   .     S
O66    C68     1.219   .     D
O67    C68     1.372   .     S
C68    C155    1.466   .     S
C69    O74     1.219   .     D
C69    O75     1.376   .     S
C69    C275    1.476   .     S
O70    C79     1.312   .     A
O71    C79     1.323   .     A
O76    C78     1.297   .     A
O77    C78     1.300   .     A
C78    C293    1.479   .     S
C79    C425    1.471   .     S
C80    C81     1.403   .     A
C80    C85     1.407   1_554 A
C80    C86     1.476   1_554 S
C81    C82     1.390   .     A
C81    H98     1.083   .     S
C82    C83     1.398   .     A
C82    H99     1.084   .     S
C83    C84     1.400   1_554 A
C84    C85     1.403   .     A
C84    H100    1.083   .     S
C84    C83     1.400   1_556 A
C85    H101    1.082   .     S
C85    C80     1.407   1_556 A
C86    C87     1.404   .     A
C86    C80     1.476   1_556 S
C86    C91     1.404   1_556 A
C87    C88     1.401   .     A
C87    H102    1.084   .     S
C88    C89     1.406   .     A
C88    H103    1.084   .     S
C89    C92     1.480   .     S
C89    C90     1.404   1_556 A
C90    C91     1.396   .     A
C90    H104    1.084   .     S
C90    C89     1.404   1_554 A
C91    H105    1.084   .     S
C91    C86     1.404   1_554 A
C92    C93     1.405   .     A
C92    C97     1.405   .     A
C93    C94     1.396   .     A
C93    H106    1.083   1_556 S
C94    C95     1.401   .     A
C94    H107    1.083   .     S
C95    C96     1.402   .     A
C96    C97     1.402   .     A
C96    H108    1.083   .     S
C97    H109    1.083   .     S
H106   C93     1.083   1_554 S
C110   C111    1.405   .     A
C110   C115    1.398   .     A
C110   C116    1.472   .     S
C111   C112    1.406   .     A
C111   H128    1.082   .     S
C112   C113    1.405   .     A
C112   H129    1.082   .     S
C113   C114    1.406   .     A
C114   C115    1.391   .     A
C114   H130    1.083   .     S
C115   H131    1.084   .     S
C116   C117    1.400   .     A
C116   C121    1.401   .     A
C117   C118    1.395   .     A
C117   H132    1.083   .     S
C118   C119    1.408   .     A
C118   H133    1.082   .     S
C119   C120    1.409   .     A
C119   C122    1.490   .     S
C120   C121    1.401   .     A
C120   H134    1.082   .     S
C121   H135    1.083   .     S
C122   C127    1.409   .     A
C122   C123    1.409   1_545 A
C123   C124    1.400   .     A
C123   H136    1.082   .     S
C123   C122    1.409   1_565 A
C124   C125    1.400   .     A
C124   H137    1.082   .     S
C125   C126    1.398   .     A
C126   H138    1.083   .     S
C126   C127    1.395   1_565 A
C127   H139    1.082   .     S
C127   C126    1.395   1_545 A
C140   C141    1.404   .     A
C140   C145    1.401   .     A
C140   C146    1.472   .     S
C141   C142    1.400   .     A
C141   H158    1.083   .     S
C142   C143    1.402   .     A
C142   H159    1.082   .     S
C143   C144    1.405   .     A
C144   C145    1.391   .     A
C144   H160    1.083   .     S
C145   H161    1.084   .     S
C146   C147    1.401   .     A
C146   C151    1.405   .     A
C147   C148    1.392   .     A
C147   H162    1.083   .     S
C148   C149    1.403   .     A
C148   H163    1.083   .     S
C149   C150    1.403   .     A
C149   C152    1.472   .     S
C150   C151    1.400   .     A
C150   H164    1.083   .     S
C151   H165    1.083   .     S
C152   C153    1.404   .     A
C152   C157    1.403   .     A
C153   C154    1.399   .     A
C153   H166    1.083   .     S
C154   C155    1.401   .     A
C154   H167    1.083   .     S
C155   C156    1.404   .     A
C156   C157    1.397   .     A
C156   H168    1.085   .     S
C157   H169    1.084   .     S
C170   C171    1.417   .     A
C170   C175    1.410   .     A
C170   C176    1.510   .     S
C171   C172    1.408   .     A
C171   H188    1.079   .     S
C172   C173    1.404   .     A
C172   H189    1.083   .     S
C173   C174    1.398   .     A
C174   C175    1.383   .     A
C174   H190    1.083   .     S
C175   H191    1.075   1_545 S
C176   C181    1.415   .     A
C176   C177    1.411   1_545 A
C177   C178    1.387   .     A
C177   H192    1.076   .     S
C177   C176    1.411   1_565 A
C178   H193    1.082   .     S
C178   C179    1.401   1_565 A
C179   C180    1.405   .     A
C179   C178    1.401   1_545 A
C179   C182    1.491   1_545 S
C180   C181    1.406   .     A
C180   H194    1.082   .     S
C181   H195    1.079   .     S
C182   C187    1.403   .     A
C182   C179    1.491   1_565 S
C182   C183    1.412   1_565 A
C183   H196    1.080   .     S
C183   C182    1.412   1_545 A
C183   C184    1.409   1_545 A
C184   C183    1.409   1_565 A
C184   C185    1.403   1_556 A
C184   H197    1.083   1_566 S
C185   C184    1.403   1_554 A
C185   C186    1.401   1_554 A
C186   C187    1.382   .     A
C186   H198    1.084   .     S
C186   C185    1.401   1_556 A
C187   H199    1.081   .     S
H191   C175    1.075   1_565 S
H197   C184    1.083   1_544 S
C200   C201    1.407   .     A
C200   C206    1.413   .     S
C200   C205    1.416   1_545 S
C201   C202    1.386   .     A
C201   H218    1.081   .     S
C202   C203    1.396   .     A
C202   H219    1.083   .     S
C203   C204    1.399   .     A
C204   C205    1.405   1_545 D
C204   H220    1.083   1_545 S
C205   H221    1.081   .     S
C205   C200    1.416   1_565 S
C205   C204    1.405   1_565 D
C206   C211    1.410   .     A
C206   C207    1.407   1_545 D
C207   C208    1.400   .     A
C207   H222    1.082   .     S
C207   C206    1.407   1_565 D
C208   C209    1.409   .     A
C208   H223    1.082   .     S
C209   C212    1.491   .     S
C209   C210    1.402   1_565 A
C210   C211    1.393   .     A
C210   H224    1.081   .     S
C210   C209    1.402   1_545 A
C211   H225    1.081   .     S
C212   C213    1.412   .     A
C212   C217    1.404   .     A
C213   C214    1.402   .     A
C213   H226    1.081   1_565 S
C214   C215    1.400   .     A
C214   H227    1.080   .     S
C215   C216    1.405   .     A
C216   C217    1.392   .     A
C216   H228    1.085   .     S
C217   H229    1.083   .     S
H220   C204    1.083   1_565 S
H226   C213    1.081   1_545 S
C230   C231    1.407   .     A
C230   C235    1.402   .     A
C230   C236    1.484   .     S
C231   C232    1.400   .     A
C231   H248    1.082   .     S
C232   C233    1.403   .     A
C232   H249    1.083   .     S
C233   C234    1.406   .     A
C234   C235    1.398   .     A
C234   H250    1.083   .     S
C235   H251    1.083   .     S
C236   C237    1.408   .     A
C236   C241    1.403   .     A
C237   C238    1.404   .     A
C237   H252    1.083   .     S
C238   C239    1.405   .     A
C238   H253    1.084   .     S
C239   C240    1.404   .     A
C239   C242    1.482   .     S
C240   C241    1.394   .     A
C240   H254    1.083   .     S
C241   H255    1.082   .     S
C242   C243    1.402   .     A
C242   C247    1.408   .     A
C243   C244    1.391   .     A
C243   H256    1.083   .     S
C244   C245    1.400   .     A
C244   H257    1.083   .     S
C245   C246    1.403   .     A
C246   C247    1.406   .     A
C246   H258    1.083   .     S
C247   H259    1.082   .     S
C260   C261    1.407   .     A
C260   C265    1.400   .     A
C260   C266    1.477   .     S
C261   H278    1.082   .     S
C261   C262    1.407   1_554 A
C262   C263    1.403   .     A
C262   H279    1.082   .     S
C262   C261    1.407   1_556 A
C263   C264    1.400   .     A
C264   H280    1.083   .     S
C264   C265    1.391   1_556 A
C265   H281    1.083   .     S
C265   C264    1.391   1_554 A
C266   C267    1.403   .     A
C266   C271    1.404   .     A
C267   C268    1.395   .     A
C267   H282    1.083   .     S
C268   C269    1.402   .     A
C268   H283    1.083   .     S
C269   C270    1.405   .     A
C269   C272    1.477   .     S
C270   C271    1.403   .     A
C270   H284    1.083   .     S
C271   H285    1.083   .     S
C272   C273    1.403   .     A
C272   C277    1.402   .     A
C273   C274    1.403   .     A
C273   H286    1.083   .     S
C274   C275    1.406   .     A
C274   H287    1.084   .     S
C275   C276    1.403   .     A
C276   C277    1.396   .     A
C276   H288    1.082   .     S
C277   H289    1.083   .     S
C290   C291    1.404   .     A
C290   C295    1.404   .     A
C290   C296    1.480   .     S
C291   C292    1.397   .     A
C291   H308    1.084   .     S
C292   C293    1.404   .     A
C292   H309    1.083   .     S
C293   C294    1.408   .     A
C294   C295    1.403   .     A
C294   H310    1.084   .     S
C295   H311    1.083   .     S
C296   C297    1.405   .     A
C296   C301    1.403   .     A
C297   C298    1.406   .     A
C297   H312    1.084   .     S
C298   C299    1.407   .     A
C298   H313    1.083   .     S
C299   C300    1.403   .     A
C299   C302    1.481   .     S
C300   C301    1.395   .     A
C300   H314    1.083   .     S
C301   H315    1.083   .     S
C302   C303    1.403   .     A
C302   C307    1.407   .     A
C303   H316    1.083   .     S
C303   C304    1.394   1_455 A
C304   C305    1.400   .     A
C304   H317    1.083   .     S
C304   C303    1.394   1_655 A
C305   C306    1.405   .     A
C306   H318    1.083   .     S
C306   C307    1.407   1_655 A
C307   H319    1.083   .     S
C307   C306    1.407   1_455 A
C320   C321    1.403   .     A
C320   C325    1.407   .     A
C320   C326    1.483   .     S
C321   C322    1.397   .     A
C321   H338    1.083   .     S
C322   H339    1.084   .     S
C322   C323    1.407   1_565 A
C323   C324    1.400   .     A
C323   C322    1.407   1_545 A
C324   H340    1.082   .     S
C324   C325    1.399   1_545 A
C325   H341    1.083   .     S
C325   C324    1.399   1_565 A
C326   C327    1.399   .     A
C326   C331    1.403   .     A
C327   H342    1.083   .     S
C327   C328    1.396   1_655 A
C328   C329    1.413   .     A
C328   H343    1.079   .     S
C328   C327    1.396   1_455 A
C329   C332    1.508   .     S
C329   C330    1.413   1_455 A
C330   C331    1.402   .     A
C330   H344    1.080   .     S
C330   C329    1.413   1_655 A
C331   H345    1.083   .     S
C332   C333    1.415   .     A
C332   C337    1.412   .     A
C333   C334    1.405   .     A
C333   H346    1.080   .     S
C334   C335    1.400   .     A
C334   H347    1.082   .     S
C335   C336    1.399   .     A
C336   C337    1.396   .     A
C336   H348    1.083   .     S
C337   H349    1.080   .     S
C350   C351    1.405   .     A
C350   C355    1.401   .     A
C350   C356    1.474   1_455 S
C351   C352    1.401   .     A
C351   H368    1.084   .     S
C352   C353    1.403   .     A
C352   H369    1.084   .     S
C353   C354    1.404   .     A
C354   C355    1.395   .     A
C354   H370    1.083   .     S
C355   H371    1.084   1_455 S
C356   C357    1.403   .     A
C356   C361    1.403   .     A
C356   C350    1.474   1_655 S
C357   C358    1.401   .     A
C357   H372    1.082   .     S
C358   C359    1.403   .     A
C358   H373    1.082   .     S
C359   C360    1.405   .     A
C359   C362    1.477   .     S
C360   C361    1.396   .     A
C360   H374    1.084   .     S
C361   H375    1.084   .     S
C362   C363    1.400   .     A
C362   C367    1.406   .     A
C363   C364    1.393   .     A
C363   H376    1.084   .     S
C364   C365    1.404   .     A
C364   H377    1.081   .     S
C365   C366    1.404   .     A
C366   C367    1.404   .     A
C366   H378    1.082   .     S
C367   H379    1.083   .     S
H371   C355    1.084   1_655 S
C380   C381    1.403   .     A
C380   C385    1.401   .     A
C380   C386    1.473   .     S
C381   C382    1.401   .     A
C381   H398    1.083   .     S
C382   C383    1.406   .     A
C382   H399    1.083   .     S
C383   C384    1.403   .     A
C384   C385    1.390   .     A
C384   H400    1.083   1_554 S
C385   H401    1.083   1_554 S
C386   C391    1.403   .     A
C386   C387    1.397   1_554 A
C387   C388    1.390   .     A
C387   H402    1.083   .     S
C387   C386    1.397   1_556 A
C388   C389    1.411   .     A
C388   H403    1.081   .     S
C389   C392    1.495   .     S
C389   C390    1.411   1_556 A
C390   C391    1.402   .     A
C390   H404    1.081   .     S
C390   C389    1.411   1_554 A
C391   H405    1.083   .     S
C392   C397    1.407   .     A
C392   C393    1.413   1_556 A
C393   H406    1.081   .     S
C393   C392    1.413   1_554 A
C393   C394    1.404   1_654 A
C394   C395    1.401   .     A
C394   C393    1.404   1_456 A
C394   H407    1.082   1_556 S
C395   C396    1.398   1_455 A
C396   C397    1.387   .     A
C396   H408    1.083   .     S
C396   C395    1.398   1_655 A
C397   H409    1.081   .     S
H400   C384    1.083   1_556 S
H401   C385    1.083   1_556 S
H407   C394    1.082   1_554 S
C410   C411    1.403   .     A
C410   C415    1.398   .     A
C410   C416    1.470   .     S
C411   C412    1.402   .     A
C411   H428    1.082   .     S
C412   C413    1.404   .     A
C412   H429    1.082   .     S
C413   C414    1.406   .     A
C414   C415    1.393   .     A
C414   H430    1.084   .     S
C415   H431    1.083   .     S
C416   C417    1.403   .     A
C416   C421    1.399   .     A
C417   C418    1.399   .     A
C417   H432    1.083   .     S
C418   C419    1.405   .     A
C418   H433    1.083   .     S
C419   C420    1.407   .     A
C419   C422    1.482   .     S
C420   C421    1.396   .     A
C420   H434    1.083   .     S
C421   H435    1.083   .     S
C422   C423    1.404   .     A
C422   C427    1.407   .     A
C423   C424    1.395   .     A
C423   H436    1.083   .     S
C424   C425    1.401   .     A
C424   H437    1.082   .     S
C425   C426    1.404   .     A
C426   C427    1.402   .     A
C426   H438    1.083   .     S
C427   H439    1.084   .     S
