data_lcy+N144+E225
_audit_creation_date              2025-01-21
_audit_creation_method            'Materials Studio'
_symmetry_space_group_name_H-M    'P1'
_symmetry_Int_Tables_number       1
_symmetry_cell_setting            triclinic
loop_
_symmetry_equiv_pos_as_xyz
  x,y,z
_cell_length_a                    31.9152
_cell_length_b                    34.0130
_cell_length_c                    30.9773
_cell_angle_alpha                 87.1015
_cell_angle_beta                  89.1974
_cell_angle_gamma                 83.0879
loop_
_atom_site_label
_atom_site_type_symbol
_atom_site_fract_x
_atom_site_fract_y
_atom_site_fract_z
_atom_site_U_iso_or_equiv
_atom_site_adp_type
_atom_site_occupancy
C0     C     0.19092   0.72371   0.87639   0.00000  Uiso   1.00
Er1    Er    0.10848   0.60747   0.83382   0.00000  Uiso   1.00
Er2    Er    0.15691   0.64655   0.85345   0.00000  Uiso   1.00
C3     C     0.07197   0.66478   0.89912   0.00000  Uiso   1.00
O4     O     0.17841   0.60435   0.90488   0.00000  Uiso   1.00
C5     C     0.10743   0.68474   0.77803   0.00000  Uiso   1.00
C6     C     0.19095   0.58954   0.78545   0.00000  Uiso   1.00
C7     C     0.06972   0.54342   0.84262   0.00000  Uiso   1.00
O8     O     0.15418   0.73573   0.86860   0.00000  Uiso   1.00
O9     O     0.20541   0.68360   0.87346   0.00000  Uiso   1.00
O10    O     0.20162   0.61736   0.80748   0.00000  Uiso   1.00
O11    O     0.15490   0.57776   0.79147   0.00000  Uiso   1.00
O12    O     0.13690   0.68993   0.80306   0.00000  Uiso   1.00
O13    O     0.09025   0.65281   0.78225   0.00000  Uiso   1.00
C14    C     0.15963   0.57417   0.91397   0.00000  Uiso   1.00
O15    O     0.13012   0.56643   0.88923   0.00000  Uiso   1.00
O16    O     0.10928   0.67481   0.89755   0.00000  Uiso   1.00
O17    O     0.06265   0.63755   0.87579   0.00000  Uiso   1.00
O18    O     0.09944   0.55030   0.86711   0.00000  Uiso   1.00
O19    O     0.06140   0.57075   0.81385   0.00000  Uiso   1.00
C20    C     0.67624   0.88377   0.24961   0.00000  Uiso   1.00
Er21   Er    0.60780   0.84589   0.10809   0.00000  Uiso   1.00
Er22   Er    0.65008   0.86457   0.15972   0.00000  Uiso   1.00
C23    C     0.65646   0.91051   0.07313   0.00000  Uiso   1.00
O24    O     0.60281   0.91173   0.17819   0.00000  Uiso   1.00
C25    C     0.69544   0.79884   0.10944   0.00000  Uiso   1.00
C26    C     0.60058   0.79894   0.19344   0.00000  Uiso   1.00
C27    C     0.53323   0.84894   0.07259   0.00000  Uiso   1.00
O28    O     0.63813   0.88518   0.25414   0.00000  Uiso   1.00
O29    O     0.69405   0.88162   0.20838   0.00000  Uiso   1.00
O30    O     0.62584   0.82211   0.20603   0.00000  Uiso   1.00
O31    O     0.58771   0.80227   0.15463   0.00000  Uiso   1.00
O32    O     0.69931   0.81910   0.14196   0.00000  Uiso   1.00
O33    O     0.66087   0.80341   0.08888   0.00000  Uiso   1.00
C34    C     0.56854   0.91825   0.15768   0.00000  Uiso   1.00
O35    O     0.55984   0.89378   0.12986   0.00000  Uiso   1.00
O36    O     0.67285   0.90578   0.11071   0.00000  Uiso   1.00
O37    O     0.62822   0.88948   0.06271   0.00000  Uiso   1.00
O38    O     0.54178   0.87128   0.10218   0.00000  Uiso   1.00
O39    O     0.56536   0.82665   0.06047   0.00000  Uiso   1.00
C40    C     0.88029   0.20585   0.73712   0.00000  Uiso   1.00
Er41   Er    0.84801   0.11692   0.61089   0.00000  Uiso   1.00
Er42   Er    0.87523   0.14600   0.66673   0.00000  Uiso   1.00
C43    C     0.92351   0.06549   0.65293   0.00000  Uiso   1.00
O44    O     0.91746   0.17203   0.62174   0.00000  Uiso   1.00
C45    C     0.81012   0.09382   0.69781   0.00000  Uiso   1.00
C46    C     0.79917   0.19686   0.62934   0.00000  Uiso   1.00
C47    C     0.84831   0.06013   0.55614   0.00000  Uiso   1.00
O48    O     0.84281   0.20461   0.74413   0.00000  Uiso   1.00
O49    O     0.90480   0.17343   0.72031   0.00000  Uiso   1.00
O50    O     0.82756   0.19722   0.65759   0.00000  Uiso   1.00
O51    O     0.80032   0.16768   0.60537   0.00000  Uiso   1.00
O52    O     0.83360   0.11844   0.71068   0.00000  Uiso   1.00
O53    O     0.80878   0.08729   0.65762   0.00000  Uiso   1.00
C54    C     0.91627   0.16692   0.58144   0.00000  Uiso   1.00
O55    O     0.88900   0.14689   0.56656   0.00000  Uiso   1.00
O56    O     0.92229   0.09468   0.67701   0.00000  Uiso   1.00
O57    O     0.89778   0.06701   0.62145   0.00000  Uiso   1.00
O58    O     0.82067   0.08991   0.55682   0.00000  Uiso   1.00
O59    O     0.87532   0.06014   0.58589   0.00000  Uiso   1.00
C60    C     0.27710   0.33446   0.41675   0.00000  Uiso   1.00
Er61   Er    0.40840   0.37803   0.33492   0.00000  Uiso   1.00
Er62   Er    0.36324   0.34612   0.37713   0.00000  Uiso   1.00
C63    C     0.45142   0.33782   0.41444   0.00000  Uiso   1.00
O64    O     0.34480   0.39817   0.41212   0.00000  Uiso   1.00
C65    C     0.40394   0.29193   0.31130   0.00000  Uiso   1.00
C66    C     0.32218   0.38714   0.29530   0.00000  Uiso   1.00
C67    C     0.44833   0.44032   0.31639   0.00000  Uiso   1.00
O68    O     0.27024   0.36731   0.39893   0.00000  Uiso   1.00
O69    O     0.31811   0.31484   0.41769   0.00000  Uiso   1.00
O70    O     0.31541   0.36350   0.32728   0.00000  Uiso   1.00
O71    O     0.35755   0.40068   0.29185   0.00000  Uiso   1.00
O72    O     0.38087   0.29229   0.34482   0.00000  Uiso   1.00
O73    O     0.41902   0.32360   0.29838   0.00000  Uiso   1.00
C74    C     0.36558   0.42756   0.40830   0.00000  Uiso   1.00
O75    O     0.39316   0.42885   0.37784   0.00000  Uiso   1.00
O76    O     0.41408   0.33025   0.42413   0.00000  Uiso   1.00
O77    O     0.45860   0.35482   0.37811   0.00000  Uiso   1.00
O78    O     0.42154   0.43840   0.34707   0.00000  Uiso   1.00
O79    O     0.45283   0.40911   0.29544   0.00000  Uiso   1.00
C80    C     0.49017   0.84761   0.05686   0.00000  Uiso   1.00
C81    C     0.48301   0.82891   0.01871   0.00000  Uiso   1.00
C82    C     0.44172   0.82530   1.00613   0.00000  Uiso   1.00
C83    C     0.40714   0.84001   0.03193   0.00000  Uiso   1.00
C84    C     0.41456   0.85818   0.07016   0.00000  Uiso   1.00
C85    C     0.45565   0.86254   0.08226   0.00000  Uiso   1.00
C86    C     0.35344   0.83857   0.97972   0.00000  Uiso   1.00
H87    H     0.26989   0.70510   0.90914   0.00000  Uiso   1.00
H88    H     0.31896   0.75076   0.92987   0.00000  Uiso   1.00
H89    H     0.22850   0.85042   0.89219   0.00000  Uiso   1.00
H90    H     0.17858   0.80496   0.87176   0.00000  Uiso   1.00
H91    H     0.30171   0.80710  -0.00887   0.00000  Uiso   1.00
O92    O     0.30485   0.83017   0.92462   0.00000  Uiso   1.00
O93    O     0.36565   0.83331   0.02312   0.00000  Uiso   1.00
C94    C     0.22034   0.75147   0.88894   0.00000  Uiso   1.00
C95    C     0.26028   0.73670   0.90534   0.00000  Uiso   1.00
C96    C     0.28825   0.76267   0.91742   0.00000  Uiso   1.00
C97    C     0.27679   0.80384   0.91323   0.00000  Uiso   1.00
C98    C     0.23745   0.81872   0.89597   0.00000  Uiso   1.00
C99    C     0.20911   0.79275   0.88443   0.00000  Uiso   1.00
C100   C     0.31885   0.82393   0.96742   0.00000  Uiso   1.00
H101   H     0.43689   0.80984   0.97720   0.00000  Uiso   1.00
H102   H     0.38839   0.86864   0.09090   0.00000  Uiso   1.00
H103   H     0.50927   0.81656   0.99905   0.00000  Uiso   1.00
H104   H     0.37131   0.85477   0.95615   0.00000  Uiso   1.00
H105   H     0.46054   0.87622   0.11238   0.00000  Uiso   1.00
C106   C     0.41212   0.25442   0.28832   0.00000  Uiso   1.00
C107   C     0.43785   0.25082   0.25112   0.00000  Uiso   1.00
C108   C     0.44448   0.21462   0.23044   0.00000  Uiso   1.00
C109   C     0.42557   0.18143   0.24710   0.00000  Uiso   1.00
C110   C     0.39942   0.18564   0.28343   0.00000  Uiso   1.00
C111   C     0.39300   0.22130   0.30401   0.00000  Uiso   1.00
C112   C     0.46563   0.13119   0.20497   0.00000  Uiso   1.00
H113   H     0.54117   0.95489   0.23151   0.00000  Uiso   1.00
H114   H     0.51478   0.02571   0.23614   0.00000  Uiso   1.00
H115   H     0.51730   0.04025   0.09731   0.00000  Uiso   1.00
H116   H     0.54136   0.96924   0.09237   0.00000  Uiso   1.00
H117   H     0.44741   0.07415   0.20329   0.00000  Uiso   1.00
O118   O     0.50614   0.07943   0.16865   0.00000  Uiso   1.00
O119   O     0.42913   0.14431   0.22840   0.00000  Uiso   1.00
C120   C     0.54230   0.95662   0.16157   0.00000  Uiso   1.00
C121   C     0.53419   0.97292   0.20205   0.00000  Uiso   1.00
C122   C     0.51930   0.01325   0.20469   0.00000  Uiso   1.00
C123   C     0.51351   0.03799   0.16686   0.00000  Uiso   1.00
C124   C     0.52066   0.02140   0.12660   0.00000  Uiso   1.00
C125   C     0.53401   0.98090   0.12389   0.00000  Uiso   1.00
C126   C     0.47107   0.09349   0.19362   0.00000  Uiso   1.00
H127   H     0.46341   0.21322   0.20122   0.00000  Uiso   1.00
H128   H     0.38405   0.16073   0.29607   0.00000  Uiso   1.00
H129   H     0.45253   0.27595   0.23792   0.00000  Uiso   1.00
H130   H     0.48999   0.15010   0.19697   0.00000  Uiso   1.00
H131   H     0.37272   0.22282   0.33235   0.00000  Uiso   1.00
C132   C     0.76354   0.22878   0.62496   0.00000  Uiso   1.00
C133   C     0.73883   0.23211   0.58748   0.00000  Uiso   1.00
C134   C     0.70129   0.25765   0.58518   0.00000  Uiso   1.00
C135   C     0.68752   0.28064   0.62037   0.00000  Uiso   1.00
C136   C     0.71274   0.27817   0.65735   0.00000  Uiso   1.00
C137   C     0.75080   0.25282   0.65949   0.00000  Uiso   1.00
C138   C     0.63645   0.32333   0.58137   0.00000  Uiso   1.00
H139   H     0.44971   0.33686   0.50344   0.00000  Uiso   1.00
H140   H     0.51094   0.33891   0.55050   0.00000  Uiso   1.00
H141   H     0.59415   0.32455   0.44034   0.00000  Uiso   1.00
H142   H     0.53376   0.32246   0.39346   0.00000  Uiso   1.00
H143   H     0.57531   0.30635   0.58016   0.00000  Uiso   1.00
O144   O     0.59267   0.33918   0.52157   0.00000  Uiso   1.00
O145   O     0.64729   0.30270   0.62073   0.00000  Uiso   1.00
C146   C     0.48703   0.32927   0.44486   0.00000  Uiso   1.00
C147   C     0.48124   0.33244   0.48972   0.00000  Uiso   1.00
C148   C     0.51621   0.33363   0.51658   0.00000  Uiso   1.00
C149   C     0.55728   0.33121   0.49870   0.00000  Uiso   1.00
C150   C     0.56281   0.32604   0.45450   0.00000  Uiso   1.00
C151   C     0.52828   0.32480   0.42789   0.00000  Uiso   1.00
C152   C     0.59867   0.32257   0.56364   0.00000  Uiso   1.00
H153   H     0.68206   0.25817   0.55658   0.00000  Uiso   1.00
H154   H     0.70247   0.29541   0.68482   0.00000  Uiso   1.00
H155   H     0.74777   0.21388   0.56038   0.00000  Uiso   1.00
H156   H     0.66040   0.33728   0.56285   0.00000  Uiso   1.00
H157   H     0.76914   0.25057   0.68885   0.00000  Uiso   1.00
C158   C     0.78606   0.07227   0.73040   0.00000  Uiso   1.00
C159   C     0.79119   0.07849   0.77442   0.00000  Uiso   1.00
C160   C     0.77118   0.05690   0.80611   0.00000  Uiso   1.00
C161   C     0.74420   0.02926   0.79466   0.00000  Uiso   1.00
C162   C     0.73984   0.02236   0.75077   0.00000  Uiso   1.00
C163   C     0.76038   0.04380   0.71880   0.00000  Uiso   1.00
C164   C     0.71546   0.02322   0.86592   0.00000  Uiso   1.00
H165   H     0.73311   0.93902   0.06420   0.00000  Uiso   1.00
H166   H     0.75431   0.98477   1.00564   0.00000  Uiso   1.00
H167   H     0.62961   0.99449   0.95208   0.00000  Uiso   1.00
H168   H     0.60805   0.94908   0.00995   0.00000  Uiso   1.00
H169   H     0.70998  -0.03143   0.89848   0.00000  Uiso   1.00
O170   O     0.70585   1.01768   0.94142   0.00000  Uiso   1.00
O171   O     0.72385   0.00630   0.82575   0.00000  Uiso   1.00
C172   C     0.66918   0.94025   0.04104   0.00000  Uiso   1.00
C173   C     0.71020   0.95130   0.04016   0.00000  Uiso   1.00
C174   C     0.72233   0.97715   1.00693   0.00000  Uiso   1.00
C175   C     0.69362   0.99211   0.97460   0.00000  Uiso   1.00
C176   C     0.65227   0.98229   0.97639   0.00000  Uiso   1.00
C177   C     0.64016   0.95650   0.00932   0.00000  Uiso   1.00
C178   C     0.70965   0.00043   0.90116   0.00000  Uiso   1.00
H179   H     0.77779   0.06139   0.83954   0.00000  Uiso   1.00
H180   H     0.72064   0.00010   0.74138   0.00000  Uiso   1.00
H181   H     0.81158   0.09947   0.78464   0.00000  Uiso   1.00
H182   H     0.71420   0.05502   0.86921   0.00000  Uiso   1.00
H183   H     0.75663   0.03775   0.68518   0.00000  Uiso   1.00
C184   C     0.85010   0.02970   0.52386   0.00000  Uiso   1.00
C185   C     0.81584   0.02801   0.49640   0.00000  Uiso   1.00
C186   C     0.81852   0.00026   0.46448   0.00000  Uiso   1.00
C187   C     0.85558  -0.02600   0.45943   0.00000  Uiso   1.00
C188   C     0.88992  -0.02400   0.48641   0.00000  Uiso   1.00
C189   C     0.88704   0.00329   0.51886   0.00000  Uiso   1.00
C190   C     0.82801   0.92127   0.42947   0.00000  Uiso   1.00
H191   H     0.76221   0.87461   0.25154   0.00000  Uiso   1.00
H192   H     0.80735   0.87349   0.31470   0.00000  Uiso   1.00
H193   H     0.69733   0.89166   0.39686   0.00000  Uiso   1.00
H194   H     0.65176   0.89187   0.33384   0.00000  Uiso   1.00
H195   H     0.82571   0.91725   0.36270   0.00000  Uiso   1.00
O196   O     0.77967   0.88479   0.39763   0.00000  Uiso   1.00
O197   O     0.85909  -0.05295   0.42657   0.00000  Uiso   1.00
C198   C     0.70347   0.88393   0.28767   0.00000  Uiso   1.00
C199   C     0.74761   0.87874   0.28300   0.00000  Uiso   1.00
C200   C     0.77346   0.87842   0.31908   0.00000  Uiso   1.00
C201   C     0.75544   0.88398   0.36039   0.00000  Uiso   1.00
C202   C     0.71153   0.88797   0.36514   0.00000  Uiso   1.00
C203   C     0.68567   0.88822   0.32917   0.00000  Uiso   1.00
C204   C     0.81348   0.90757   0.39386   0.00000  Uiso   1.00
H205   H     0.79199   0.99948   0.44326   0.00000  Uiso   1.00
H206   H     0.91873  -0.04383   0.48247   0.00000  Uiso   1.00
H207   H     0.78717   0.04827   0.49941   0.00000  Uiso   1.00
H208   H     0.81362   0.91413   0.46052   0.00000  Uiso   1.00
H209   H     0.91402   0.00438   0.53939   0.00000  Uiso   1.00
C210   C     0.35920   0.45744   0.44161   0.00000  Uiso   1.00
C211   C     0.34420   0.44544   0.48243   0.00000  Uiso   1.00
C212   C     0.33817   0.47168   0.51547   0.00000  Uiso   1.00
C213   C     0.34567   0.51146   0.50843   0.00000  Uiso   1.00
C214   C     0.36246   0.52326   0.46826   0.00000  Uiso   1.00
C215   C     0.36926   0.49645   0.43495   0.00000  Uiso   1.00
C216   C     0.30178   0.53378   0.56642   0.00000  Uiso   1.00
H217   H     0.24888   0.62429   0.73470   0.00000  Uiso   1.00
H218   H     0.27980   0.60004   0.66665   0.00000  Uiso   1.00
H219   H     0.22351   0.49173   0.68881   0.00000  Uiso   1.00
H220   H     0.19248   0.51581   0.75645   0.00000  Uiso   1.00
H221   H     0.32255   0.55728   0.62293   0.00000  Uiso   1.00
O222   O     0.26383   0.53060   0.63117   0.00000  Uiso   1.00
O223   O     0.33814   0.53873   0.54138   0.00000  Uiso   1.00
C224   C     0.21837   0.57187   0.75086   0.00000  Uiso   1.00
C225   C     0.24468   0.59463   0.72587   0.00000  Uiso   1.00
C226   C     0.26245   0.58068   0.68692   0.00000  Uiso   1.00
C227   C     0.25450   0.54346   0.67297   0.00000  Uiso   1.00
C228   C     0.23039   0.52012   0.69937   0.00000  Uiso   1.00
C229   C     0.21264   0.53397   0.73790   0.00000  Uiso   1.00
C230   C     0.29800   0.54343   0.60768   0.00000  Uiso   1.00
H231   H     0.32755   0.46084   0.54671   0.00000  Uiso   1.00
H232   H     0.36964   0.55341   0.46259   0.00000  Uiso   1.00
H233   H     0.33775   0.41516   0.48928   0.00000  Uiso   1.00
H234   H     0.27663   0.51916   0.55313   0.00000  Uiso   1.00
H235   H     0.38168   0.50623   0.40406   0.00000  Uiso   1.00
C236   C     0.17039   0.55057   0.95472   0.00000  Uiso   1.00
C237   C     0.14458   0.52268   0.97186   0.00000  Uiso   1.00
C238   C     0.15074   0.50645   0.01425   0.00000  Uiso   1.00
C239   C     0.18264   0.51815   0.03993   0.00000  Uiso   1.00
C240   C     0.20924   0.54451   0.02219   0.00000  Uiso   1.00
C241   C     0.20360   0.56021   0.97999   0.00000  Uiso   1.00
C242   C     0.18769   0.46959   0.09876   0.00000  Uiso   1.00
H243   H     0.32410   0.44291   0.22939   0.00000  Uiso   1.00
H244   H     0.27535   0.45725   0.16948   0.00000  Uiso   1.00
H245   H     0.19953   0.36933   0.22187   0.00000  Uiso   1.00
H246   H     0.24888   0.35442   0.28254   0.00000  Uiso   1.00
H247   H     0.20084   0.48468   0.16115   0.00000  Uiso   1.00
O248   O     0.20556   0.42100   0.15605   0.00000  Uiso   1.00
O249   O     0.18473   0.50958   0.08458   0.00000  Uiso   1.00
C250   C     0.29008   0.39792   0.26117   0.00000  Uiso   1.00
C251   C     0.29666   0.42707   0.22879   0.00000  Uiso   1.00
C252   C     0.26855   0.43548   0.19451   0.00000  Uiso   1.00
C253   C     0.23286   0.41506   0.19179   0.00000  Uiso   1.00
C254   C     0.22637   0.38582   0.22389   0.00000  Uiso   1.00
C255   C     0.25444   0.37752   0.25853   0.00000  Uiso   1.00
C256   C     0.19735   0.46056   0.14018   0.00000  Uiso   1.00
H257   H     0.12919   0.48678   0.02782   0.00000  Uiso   1.00
H258   H     0.23354   0.55407   0.04187   0.00000  Uiso   1.00
H259   H     0.11827   0.51520   0.95356   0.00000  Uiso   1.00
H260   H     0.18555   0.44618   0.07652   0.00000  Uiso   1.00
H261   H     0.22398   0.58167   0.96803   0.00000  Uiso   1.00
C262   C     0.24192   0.31577   0.43717   0.00000  Uiso   1.00
C263   C     0.20010   0.32798   0.42429   0.00000  Uiso   1.00
C264   C     0.16666   0.31093   0.44423   0.00000  Uiso   1.00
C265   C     0.17449   0.28156   0.47765   0.00000  Uiso   1.00
C266   C     0.21610   0.26973   0.49080   0.00000  Uiso   1.00
C267   C     0.24968   0.28618   0.47029   0.00000  Uiso   1.00
C268   C     0.10814   0.25629   0.47724   0.00000  Uiso   1.00
H269   H     0.99714   0.17082   0.60128   0.00000  Uiso   1.00
H270   H     0.05151   0.19652   0.55685   0.00000  Uiso   1.00
H271   H     0.96232   0.22665   0.45335   0.00000  Uiso   1.00
H272   H     0.90792   0.19717   0.49750   0.00000  Uiso   1.00
H273   H     0.07032   0.25418   0.53215   0.00000  Uiso   1.00
O274   O     0.04046   0.23346   0.47607   0.00000  Uiso   1.00
O275   O     0.14157   0.26687   0.50141   0.00000  Uiso   1.00
C276   C     0.94818   0.18304   0.55314   0.00000  Uiso   1.00
C277   C     0.98896   0.18332   0.56919   0.00000  Uiso   1.00
C278   C     0.02000   0.19875   0.54384   0.00000  Uiso   1.00
C279   C     1.01038   0.21627   0.50234   0.00000  Uiso   1.00
C280   C     0.96996   0.21457   0.48569   0.00000  Uiso   1.00
C281   C     0.93904   0.19780   0.51076   0.00000  Uiso   1.00
C282   C     0.07293   0.24864   0.49790   0.00000  Uiso   1.00
H283   H     0.13464   0.32147   0.43456   0.00000  Uiso   1.00
H284   H     0.22241   0.24781   0.51721   0.00000  Uiso   1.00
H285   H     0.19323   0.35088   0.39893   0.00000  Uiso   1.00
H286   H     0.11139   0.25206   0.44272   0.00000  Uiso   1.00
H287   H     0.28156   0.27662   0.48114   0.00000  Uiso   1.00
C288   C     0.95294   0.02908   0.66182   0.00000  Uiso   1.00
C289   C     0.94512   0.99328   0.64453   0.00000  Uiso   1.00
C290   C     0.97043   0.95792   0.65561   0.00000  Uiso   1.00
C291   C     1.00500   0.95779   0.68354   0.00000  Uiso   1.00
C292   C     1.01290  -0.00638   0.70042   0.00000  Uiso   1.00
C293   C     0.98715   0.02896   0.68982   0.00000  Uiso   1.00
C294   C     1.03010   0.88875   0.67501   0.00000  Uiso   1.00
H295   H     0.14445   0.75094   0.75790   0.00000  Uiso   1.00
H296   H     0.11688   0.80852   0.71271   0.00000  Uiso   1.00
H297   H     1.00973   0.75034   0.68025   0.00000  Uiso   1.00
H298   H     0.03751   0.69152   0.72559   0.00000  Uiso   1.00
H299   H     0.04984   0.85209   0.72860   0.00000  Uiso   1.00
O300   O     1.04204   0.81855   0.67180   0.00000  Uiso   1.00
O301   O     1.02960   0.92285   0.69888   0.00000  Uiso   1.00
C302   C     0.09279   0.71685   0.74584   0.00000  Uiso   1.00
C303   C     0.11516   0.75004   0.74093   0.00000  Uiso   1.00
C304   C     0.09930   0.78317   0.71540   0.00000  Uiso   1.00
C305   C     0.06031   0.78419   0.69465   0.00000  Uiso   1.00
C306   C     0.03934   0.75020   0.69693   0.00000  Uiso   1.00
C307   C     0.05527   0.71675   0.72264   0.00000  Uiso   1.00
C308   C     0.04180   0.85339   0.69445   0.00000  Uiso   1.00
H309   H     0.96165   0.93081   0.64357   0.00000  Uiso   1.00
H310   H     1.03870  -0.00604   0.72270   0.00000  Uiso   1.00
H311   H     0.91829   0.99218   0.62379   0.00000  Uiso   1.00
H312   H     1.02214   0.89051   0.64094   0.00000  Uiso   1.00
H313   H     0.99362   0.05604   0.70397   0.00000  Uiso   1.00
C314   C     0.04750   0.50782   0.84678   0.00000  Uiso   1.00
C315   C     0.01379   0.50445   0.81916   0.00000  Uiso   1.00
C316   C    -0.00639   0.47026   0.82113   0.00000  Uiso   1.00
C317   C     0.00719   0.43844   0.85039   0.00000  Uiso   1.00
C318   C     0.03944   0.44254   0.87945   0.00000  Uiso   1.00
C319   C     0.05978   0.47688   0.87747   0.00000  Uiso   1.00
C320   C     0.98364   0.38830   0.81040   0.00000  Uiso   1.00
H321   H     0.95646   0.22323   0.70823   0.00000  Uiso   1.00
H322   H     0.99051   0.28226   0.72050   0.00000  Uiso   1.00
H323   H     0.88390   0.32880   0.79687   0.00000  Uiso   1.00
H324   H     0.84909   0.26956   0.78464   0.00000  Uiso   1.00
H325   H    -0.05074   0.34275   0.83376   0.00000  Uiso   1.00
O326   O     0.96047   0.34308   0.76410   0.00000  Uiso   1.00
O327   O    -0.01115   0.40284   0.85140   0.00000  Uiso   1.00
C328   C     0.90051   0.24139   0.74621   0.00000  Uiso   1.00
C329   C     0.94050   0.24559   0.72836   0.00000  Uiso   1.00
C330   C     0.95998   0.27923   0.73518   0.00000  Uiso   1.00
C331   C     0.94049   0.30895   0.76068   0.00000  Uiso   1.00
C332   C     0.90020   0.30530   0.77844   0.00000  Uiso   1.00
C333   C     0.88028   0.27170   0.77114   0.00000  Uiso   1.00
C334   C     0.96267   0.35724   0.80562   0.00000  Uiso   1.00
H335   H     0.96768   0.46839   0.79946   0.00000  Uiso   1.00
H336   H     0.04960   0.41859   0.90273   0.00000  Uiso   1.00
H337   H     1.00327   0.52810   0.79567   0.00000  Uiso   1.00
H338   H     0.99779   0.40137   0.78174   0.00000  Uiso   1.00
H339   H     0.08552   0.47887   0.89932   0.00000  Uiso   1.00
C340   C     0.73188   0.77159   0.09507   0.00000  Uiso   1.00
C341   C     0.73613   0.76153   0.05164   0.00000  Uiso   1.00
C342   C     0.77317   0.73963   0.03724   0.00000  Uiso   1.00
C343   C     0.80622   0.72755   0.06606   0.00000  Uiso   1.00
C344   C     0.80147   0.73614   0.10964   0.00000  Uiso   1.00
C345   C     0.76473   0.75830   0.12403   0.00000  Uiso   1.00
C346   C     0.87359   0.73106   1.03682   0.00000  Uiso   1.00
H347   H    -0.00863   0.64780   0.90757   0.00000  Uiso   1.00
H348   H     0.93515   0.67914  -0.04858   0.00000  Uiso   1.00
H349   H     1.01926   0.75693   0.99924   0.00000  Uiso   1.00
H350   H     0.07631   0.72621   0.95309   0.00000  Uiso   1.00
H351   H     0.91717   0.68245   0.02358   0.00000  Uiso   1.00
O352   O     0.94117   0.73849   1.00626   0.00000  Uiso   1.00
O353   O     0.84358   0.70648   0.05164   0.00000  Uiso   1.00
C354   C     0.03865   0.68409   0.92733   0.00000  Uiso   1.00
C355   C    -0.00167   0.67135   0.92762   0.00000  Uiso   1.00
C356   C     0.96603   0.68901   0.95333   0.00000  Uiso   1.00
C357   C     0.97337   0.71945   0.98043   0.00000  Uiso   1.00
C358   C     1.01329   0.73288   0.97946   0.00000  Uiso   1.00
C359   C     0.04581   0.71531   0.95325   0.00000  Uiso   1.00
C360   C     0.91087   0.71463   1.02248   0.00000  Uiso   1.00
H361   H     0.77659   0.73273   1.00354   0.00000  Uiso   1.00
H362   H     0.82666   0.72632   0.13216   0.00000  Uiso   1.00
H363   H     0.71156   0.77188   0.02857   0.00000  Uiso   1.00
H364   H     0.86681   0.76326   1.03610   0.00000  Uiso   1.00
H365   H     0.76224   0.76558   0.15769   0.00000  Uiso   1.00
C366   C     0.58651   0.76722   0.22271   0.00000  Uiso   1.00
C367   C     0.56610   0.73733   0.20525   0.00000  Uiso   1.00
C368   C     0.55350   0.70647   0.23168   0.00000  Uiso   1.00
C369   C     0.56119   0.70451   0.27634   0.00000  Uiso   1.00
C370   C     0.58030   0.73497   0.29419   0.00000  Uiso   1.00
C371   C     0.59353   0.76583   0.26754   0.00000  Uiso   1.00
C372   C     0.55775   0.63580   0.28759   0.00000  Uiso   1.00
H373   H     0.45310   0.50306   0.36660   0.00000  Uiso   1.00
H374   H     0.49484   0.55787   0.35367   0.00000  Uiso   1.00
H375   H     0.53917   0.51003   0.23260   0.00000  Uiso   1.00
H376   H     0.49833   0.45394   0.24655   0.00000  Uiso   1.00
H377   H     0.50720   0.61335   0.31967   0.00000  Uiso   1.00
O378   O     0.54468   0.56955   0.28101   0.00000  Uiso   1.00
O379   O     0.54795   0.67389   0.30343   0.00000  Uiso   1.00
C380   C     0.47201   0.47461   0.30727   0.00000  Uiso   1.00
C381   C     0.47123   0.50465   0.33688   0.00000  Uiso   1.00
C382   C     0.49486   0.53645   0.32908   0.00000  Uiso   1.00
C383   C     0.51908   0.53922   0.29080   0.00000  Uiso   1.00
C384   C     0.52008   0.50886   0.26171   0.00000  Uiso   1.00
C385   C     0.49682   0.47690   0.26971   0.00000  Uiso   1.00
C386   C     0.53458   0.60672   0.29899   0.00000  Uiso   1.00
H387   H     0.53741   0.68415   0.21733   0.00000  Uiso   1.00
H388   H     0.58548   0.73441   0.32871   0.00000  Uiso   1.00
H389   H     0.56017   0.73753   0.17090   0.00000  Uiso   1.00
H390   H     0.58393   0.62981   0.26501   0.00000  Uiso   1.00
H391   H     0.60904   0.78856   0.28190   0.00000  Uiso   1.00
loop_
_geom_bond_atom_site_label_1
_geom_bond_atom_site_label_2
_geom_bond_distance
_geom_bond_site_symmetry_2
_ccdc_geom_bond_type
C0     O8      1.218   .     D
C0     O9      1.394   .     S
C0     C94     1.478   .     S
Er1    O11     2.158   .     S
Er1    O13     2.198   .     S
Er1    O15     2.221   .     S
Er1    O17     2.144   .     S
Er1    O18     2.203   .     S
Er1    O19     2.181   .     S
Er2    O4      2.152   .     S
Er2    O9      2.223   .     S
Er2    O10     2.189   .     S
Er2    O12     2.142   .     S
Er2    O16     2.196   .     S
C3     O16     1.277   .     A
C3     O17     1.269   .     A
C3     C354    1.480   .     S
O4     C14     1.267   .     A
C5     O12     1.262   .     A
C5     O13     1.274   .     A
C5     C302    1.478   .     S
C6     O10     1.275   .     A
C6     O11     1.272   .     A
C6     C224    1.479   .     S
C7     O18     1.273   .     A
C7     O19     1.262   .     A
C7     C314    1.475   .     S
C14    O15     1.282   .     A
C14    C236    1.483   .     S
C20    O28     1.218   .     D
C20    O29     1.392   .     S
C20    C198    1.475   .     S
Er21   O31     2.163   .     S
Er21   O33     2.186   .     S
Er21   O35     2.221   .     S
Er21   O37     2.143   .     S
Er21   O38     2.186   .     S
Er21   O39     2.192   .     S
Er22   O24     2.159   .     S
Er22   O29     2.219   .     S
Er22   O30     2.184   .     S
Er22   O32     2.154   .     S
Er22   O36     2.190   .     S
C23    O36     1.278   .     A
C23    O37     1.271   .     A
C23    C172    1.470   .     S
O24    C34     1.263   .     A
C25    O32     1.264   .     A
C25    O33     1.271   .     A
C25    C340    1.476   .     S
C26    O30     1.271   .     A
C26    O31     1.271   .     A
C26    C366    1.481   .     S
C27    O38     1.273   .     A
C27    O39     1.264   .     A
C27    C80     1.471   .     S
C34    O35     1.284   .     A
C34    C120    1.473   .     S
C40    O48     1.218   .     D
C40    O49     1.392   .     S
C40    C328    1.478   .     S
Er41   O51     2.161   .     S
Er41   O53     2.187   .     S
Er41   O55     2.183   .     S
Er41   O57     2.196   .     S
Er41   O58     2.191   .     S
Er41   O59     2.194   .     S
Er42   O44     2.157   .     S
Er42   O49     2.220   .     S
Er42   O50     2.181   .     S
Er42   O52     2.149   .     S
Er42   O56     2.175   .     S
C43    O56     1.268   .     A
C43    O57     1.279   .     A
C43    C288    1.478   .     S
O44    C54     1.271   .     A
C45    O52     1.271   .     A
C45    O53     1.278   .     A
C45    C158    1.478   .     S
C46    O50     1.270   .     A
C46    O51     1.266   .     A
C46    C132    1.477   .     S
C47    O58     1.261   .     A
C47    O59     1.271   .     A
C47    C184    1.471   .     S
C54    O55     1.273   .     A
C54    C276    1.472   .     S
C60    O68     1.218   .     D
C60    O69     1.396   .     S
C60    C262    1.475   .     S
Er61   O71     2.159   .     S
Er61   O73     2.208   .     S
Er61   O75     2.237   .     S
Er61   O77     2.151   .     S
Er61   O78     2.196   .     S
Er61   O79     2.192   .     S
Er62   O64     2.140   .     S
Er62   O69     2.229   .     S
Er62   O70     2.196   .     S
Er62   O72     2.143   .     S
Er62   O76     2.195   .     S
C63    O76     1.278   .     A
C63    O77     1.270   .     A
C63    C146    1.479   .     S
O64    C74     1.264   .     A
C65    O72     1.264   .     A
C65    O73     1.276   .     A
C65    C106    1.486   .     S
C66    O70     1.277   .     A
C66    O71     1.271   .     A
C66    C250    1.484   .     S
C67    O78     1.274   .     A
C67    O79     1.264   .     A
C67    C380    1.478   .     S
C74    O75     1.284   .     A
C74    C210    1.480   .     S
C80    C81     1.404   .     A
C80    C85     1.404   .     A
C81    C82     1.401   1_554 D
C81    H103    1.085   1_554 S
C82    H101    1.084   .     S
C82    C81     1.401   1_556 D
C82    C83     1.411   1_556 S
C83    C84     1.399   .     A
C83    O93     1.403   .     S
C83    C82     1.411   1_554 S
C84    C85     1.396   .     A
C84    H102    1.083   .     S
C85    H105    1.085   .     S
C86    C100    1.332   .     D
C86    H104    1.089   .     S
C86    O93     1.402   1_556 S
H87    C95     1.083   .     S
H88    C96     1.083   .     S
H89    C98     1.082   .     S
H90    C99     1.083   .     S
H91    C100    1.090   1_554 S
O92    C97     1.401   .     S
O92    C100    1.403   .     S
O93    C86     1.402   1_554 S
C94    C95     1.405   .     A
C94    C99     1.407   .     A
C95    C96     1.396   .     A
C96    C97     1.404   .     A
C97    C98     1.399   .     A
C98    C99     1.400   .     A
C100   H91     1.090   1_556 S
H103   C81     1.085   1_556 S
C106   C107    1.407   .     A
C106   C111    1.407   .     A
C107   C108    1.408   .     A
C107   H129    1.083   .     S
C108   C109    1.415   .     A
C108   H127    1.081   .     S
C109   C110    1.394   .     A
C109   O119    1.407   .     S
C110   C111    1.391   .     A
C110   H128    1.083   .     S
C111   H131    1.083   .     S
C112   O119    1.402   .     S
C112   C126    1.337   .     D
C112   H130    1.085   .     S
H113   C121    1.084   .     S
H114   C122    1.083   .     S
H115   C124    1.083   .     S
H116   C125    1.084   .     S
H117   C126    1.089   .     S
O118   C123    1.404   .     S
O118   C126    1.402   .     S
C120   C121    1.405   .     A
C120   C125    1.405   .     A
C121   C122    1.403   1_565 A
C122   C123    1.409   .     A
C122   C121    1.403   1_545 A
C123   C124    1.399   .     A
C124   C125    1.398   1_545 A
C125   C124    1.398   1_565 A
C132   C133    1.405   .     A
C132   C137    1.405   .     A
C133   C134    1.393   .     A
C133   H155    1.083   .     S
C134   C135    1.408   .     A
C134   H153    1.083   .     S
C135   C136    1.402   .     A
C135   O145    1.407   .     S
C136   C137    1.403   .     A
C136   H154    1.082   .     S
C137   H157    1.083   .     S
C138   O145    1.402   .     S
C138   C152    1.336   .     D
C138   H156    1.089   .     S
H139   C147    1.083   .     S
H140   C148    1.082   .     S
H141   C150    1.083   .     S
H142   C151    1.084   .     S
H143   C152    1.087   .     S
O144   C149    1.402   .     S
O144   C152    1.400   .     S
C146   C147    1.407   .     A
C146   C151    1.405   .     A
C147   C148    1.407   .     A
C148   C149    1.411   .     A
C149   C150    1.395   .     A
C150   C151    1.391   .     A
C158   C159    1.405   .     A
C158   C163    1.405   .     A
C159   C160    1.390   .     A
C159   H181    1.084   .     S
C160   C161    1.410   .     A
C160   H179    1.082   .     S
C161   C162    1.403   .     A
C161   O171    1.410   .     S
C162   C163    1.402   .     A
C162   H180    1.083   .     S
C163   H183    1.083   .     S
C164   O171    1.406   .     S
C164   C178    1.331   .     D
C164   H182    1.087   .     S
H165   C173    1.083   .     S
H166   C174    1.083   .     S
H167   C176    1.083   .     S
H168   C177    1.084   .     S
H169   C178    1.090   .     S
O170   C175    1.395   .     S
O170   C178    1.402   1_565 S
C172   C173    1.404   .     A
C172   C177    1.406   .     A
C173   C174    1.400   1_554 A
C174   C175    1.401   .     A
C174   C173    1.400   1_556 A
C175   C176    1.399   .     A
C176   C177    1.393   1_556 A
C177   C176    1.393   1_554 A
C178   O170    1.402   1_545 S
C184   C185    1.403   .     A
C184   C189    1.405   .     A
C185   C186    1.396   .     A
C185   H207    1.083   .     S
C186   C187    1.406   .     A
C186   H205    1.083   1_545 S
C187   C188    1.398   .     A
C187   O197    1.398   .     S
C188   C189    1.397   .     A
C188   H206    1.082   .     S
C189   H209    1.083   .     S
C190   C204    1.329   .     D
C190   H208    1.089   .     S
C190   O197    1.400   1_565 S
H191   C199    1.083   .     S
H192   C200    1.082   .     S
H193   C202    1.083   .     S
H194   C203    1.083   .     S
H195   C204    1.087   .     S
O196   C201    1.401   .     S
O196   C204    1.402   .     S
O197   C190    1.400   1_545 S
C198   C199    1.405   .     A
C198   C203    1.405   .     A
C199   C200    1.397   .     A
C200   C201    1.408   .     A
C201   C202    1.398   .     A
C202   C203    1.395   .     A
H205   C186    1.083   1_565 S
C210   C211    1.405   .     A
C210   C215    1.407   .     A
C211   C212    1.388   .     A
C211   H233    1.084   .     S
C212   C213    1.408   .     A
C212   H231    1.083   .     S
C213   C214    1.407   .     A
C213   O223    1.413   .     S
C214   C215    1.409   .     A
C214   H232    1.083   .     S
C215   H235    1.082   .     S
C216   O223    1.409   .     S
C216   C230    1.336   .     D
C216   H234    1.089   .     S
H217   C225    1.083   .     S
H218   C226    1.082   .     S
H219   C228    1.083   .     S
H220   C229    1.084   .     S
H221   C230    1.087   .     S
O222   C227    1.404   .     S
O222   C230    1.403   .     S
C224   C225    1.408   .     A
C224   C229    1.403   .     A
C225   C226    1.406   .     A
C226   C227    1.410   .     A
C227   C228    1.398   .     A
C228   C229    1.393   .     A
C236   C237    1.409   .     A
C236   C241    1.406   .     A
C237   H259    1.082   .     S
C237   C238    1.406   1_556 A
C238   C239    1.407   .     A
C238   H257    1.082   .     S
C238   C237    1.406   1_554 A
C239   C240    1.396   .     A
C239   O249    1.400   .     S
C240   H258    1.083   .     S
C240   C241    1.392   1_554 A
C241   H261    1.083   .     S
C241   C240    1.392   1_556 A
C242   O249    1.400   .     S
C242   C256    1.336   .     D
C242   H260    1.088   .     S
H243   C251    1.083   .     S
H244   C252    1.083   .     S
H245   C254    1.083   .     S
H246   C255    1.083   .     S
H247   C256    1.089   .     S
O248   C253    1.410   .     S
O248   C256    1.405   .     S
C250   C251    1.406   .     A
C250   C255    1.407   .     A
C251   C252    1.396   .     A
C252   C253    1.409   .     A
C253   C254    1.402   .     A
C254   C255    1.403   .     A
C262   C263    1.407   .     A
C262   C267    1.403   .     A
C263   C264    1.397   .     A
C263   H285    1.083   .     S
C264   C265    1.406   .     A
C264   H283    1.083   .     S
C265   C266    1.400   .     A
C265   O275    1.401   .     S
C266   C267    1.398   .     A
C266   H284    1.083   .     S
C267   H287    1.083   .     S
C268   O275    1.404   .     S
C268   C282    1.332   .     D
C268   H286    1.088   .     S
H269   C277    1.084   .     S
H270   C278    1.081   .     S
H271   C280    1.083   .     S
H272   C281    1.083   .     S
H273   C282    1.087   .     S
O274   C282    1.407   .     S
O274   C279    1.411   1_455 S
C276   C277    1.401   .     A
C276   C281    1.403   .     A
C277   C278    1.391   1_655 A
C278   C277    1.391   1_455 A
C278   C279    1.411   1_455 A
C279   C280    1.405   .     A
C279   O274    1.411   1_655 S
C279   C278    1.411   1_655 A
C280   C281    1.404   .     A
C288   C293    1.403   .     A
C288   C289    1.405   1_545 A
C289   C290    1.396   .     A
C289   H311    1.083   .     S
C289   C288    1.405   1_565 A
C290   C291    1.411   .     A
C290   H309    1.081   .     S
C291   O301    1.408   .     S
C291   C292    1.402   1_565 A
C292   C293    1.399   .     A
C292   H310    1.083   .     S
C292   C291    1.402   1_545 A
C293   H313    1.083   .     S
C294   O301    1.405   .     S
C294   H312    1.086   .     S
C294   C308    1.332   1_655 D
H295   C303    1.083   .     S
H296   C304    1.083   .     S
H297   C306    1.083   1_655 S
H298   C307    1.083   .     S
H299   C308    1.089   .     S
O300   C305    1.404   1_655 S
O300   C308    1.407   1_655 S
C302   C303    1.408   .     A
C302   C307    1.406   .     A
C303   C304    1.391   .     A
C304   C305    1.404   .     A
C305   C306    1.402   .     A
C305   O300    1.404   1_455 S
C306   C307    1.403   .     A
C306   H297    1.083   1_455 S
C308   C294    1.332   1_455 D
C308   O300    1.407   1_455 S
C314   C315    1.403   .     A
C314   C319    1.405   .     A
C315   C316    1.394   .     A
C315   H337    1.083   1_455 S
C316   C317    1.407   .     A
C316   H335    1.082   1_455 S
C317   C318    1.401   .     A
C317   O327    1.406   .     S
C318   C319    1.402   .     A
C318   H336    1.083   .     S
C319   H339    1.082   .     S
C320   C334    1.332   .     D
C320   H338    1.089   .     S
C320   O327    1.405   1_655 S
H321   C329    1.083   .     S
H322   C330    1.083   .     S
H323   C332    1.083   .     S
H324   C333    1.083   .     S
H325   C334    1.088   1_455 S
O326   C331    1.399   .     S
O326   C334    1.402   .     S
O327   C320    1.405   1_455 S
C328   C329    1.404   .     A
C328   C333    1.408   .     A
C329   C330    1.393   .     A
C330   C331    1.396   .     A
C331   C332    1.408   .     A
C332   C333    1.403   .     A
C334   H325    1.088   1_655 S
H335   C316    1.082   1_655 S
H337   C315    1.083   1_655 S
C340   C341    1.405   .     A
C340   C345    1.407   .     A
C341   C342    1.400   .     A
C341   H363    1.083   .     S
C342   C343    1.401   .     A
C342   H361    1.083   1_554 S
C343   C344    1.398   .     A
C343   O353    1.395   .     S
C344   C345    1.396   .     A
C344   H362    1.083   .     S
C345   H365    1.083   .     S
C346   C360    1.332   .     D
C346   H364    1.089   .     S
C346   O353    1.403   1_556 S
H347   C355    1.084   .     S
H348   C356    1.082   1_554 S
H349   C358    1.083   .     S
H350   C359    1.083   .     S
H351   C360    1.088   1_554 S
O352   C357    1.409   .     S
O352   C360    1.407   .     S
O353   C346    1.403   1_554 S
C354   C355    1.406   .     A
C354   C359    1.405   .     A
C355   C356    1.391   1_455 A
C356   C357    1.408   .     A
C356   H348    1.082   1_556 S
C356   C355    1.391   1_655 A
C357   C358    1.404   .     A
C358   C359    1.403   1_655 A
C359   C358    1.403   1_455 A
C360   H351    1.088   1_556 S
H361   C342    1.083   1_556 S
C366   C367    1.405   .     A
C366   C371    1.407   .     A
C367   C368    1.392   .     A
C367   H389    1.083   .     S
C368   C369    1.405   .     A
C368   H387    1.083   .     S
C369   C370    1.404   .     A
C369   O379    1.406   .     S
C370   C371    1.404   .     A
C370   H388    1.083   .     S
C371   H391    1.083   .     S
C372   O379    1.407   .     S
C372   C386    1.335   .     D
C372   H390    1.089   .     S
H373   C381    1.083   .     S
H374   C382    1.080   .     S
H375   C384    1.083   .     S
H376   C385    1.083   .     S
H377   C386    1.085   .     S
O378   C383    1.410   .     S
O378   C386    1.407   .     S
C380   C381    1.405   .     A
C380   C385    1.402   .     A
C381   C382    1.401   .     A
C382   C383    1.412   .     A
C383   C384    1.402   .     A
C384   C385    1.398   .     A
