data_lcy+N173+E59
_audit_creation_date              2025-01-21
_audit_creation_method            'Materials Studio'
_symmetry_space_group_name_H-M    'P1'
_symmetry_Int_Tables_number       1
_symmetry_cell_setting            triclinic
loop_
_symmetry_equiv_pos_as_xyz
  x,y,z
_cell_length_a                    36.2439
_cell_length_b                    34.9859
_cell_length_c                    36.5754
_cell_angle_alpha                 96.6964
_cell_angle_beta                  83.0419
_cell_angle_gamma                 100.3939
loop_
_atom_site_label
_atom_site_type_symbol
_atom_site_fract_x
_atom_site_fract_y
_atom_site_fract_z
_atom_site_U_iso_or_equiv
_atom_site_adp_type
_atom_site_occupancy
Gd0    Gd    0.12968   0.66179   0.82984   0.00000  Uiso   1.00
Gd1    Gd    0.13213   0.58058   0.89951   0.00000  Uiso   1.00
O2     O     0.08729   0.55190   0.86224   0.00000  Uiso   1.00
O3     O     0.11675   0.60339   0.84469   0.00000  Uiso   1.00
O4     O     0.18006   0.63589   0.80544   0.00000  Uiso   1.00
O5     O     0.17968   0.59277   0.84981   0.00000  Uiso   1.00
O6     O     0.13293   0.71027   0.79559   0.00000  Uiso   1.00
O7     O     0.10150   0.65330   0.77882   0.00000  Uiso   1.00
O8     O     0.16898   0.69136   0.87123   0.00000  Uiso   1.00
C9     C     0.11335   0.68866   0.77159   0.00000  Uiso   1.00
O10    O     0.14170   0.64586   0.90418   0.00000  Uiso   1.00
O11    O     0.07724   0.66777   0.86787   0.00000  Uiso   1.00
C12    C     0.19421   0.61036   0.82025   0.00000  Uiso   1.00
O13    O     0.10466   0.63818   0.90550   0.00000  Uiso   1.00
O14    O     0.15604   0.52845   0.90606   0.00000  Uiso   1.00
O15    O     0.17400   0.58304   0.93897   0.00000  Uiso   1.00
C16    C     0.09033   0.57598   0.83923   0.00000  Uiso   1.00
C17    C     0.17700   0.54701   0.93051   0.00000  Uiso   1.00
C18    C     0.07401   0.64674   0.89521   0.00000  Uiso   1.00
C19    C     0.17223   0.66883   0.89437   0.00000  Uiso   1.00
Gd20   Gd    0.64627   0.86102   0.12101   0.00000  Uiso   1.00
Gd21   Gd    0.60997   0.90694   0.13750   0.00000  Uiso   1.00
O22    O     0.56920   0.87503   0.09809   0.00000  Uiso   1.00
O23    O     0.59820   0.82458   0.09385   0.00000  Uiso   1.00
O24    O     0.62682   0.83370   0.17323   0.00000  Uiso   1.00
O25    O     0.58292   0.87044   0.18422   0.00000  Uiso   1.00
O26    O     0.68070   0.85401   0.06604   0.00000  Uiso   1.00
O27    O     0.67872   0.81220   0.10357   0.00000  Uiso   1.00
O28    O     0.69300   0.89899   0.14917   0.00000  Uiso   1.00
C29    C     0.68989   0.82208   0.07160   0.00000  Uiso   1.00
O30    O     0.65300   0.93763   0.17502   0.00000  Uiso   1.00
O31    O     0.66760   0.89115   0.06871   0.00000  Uiso   1.00
C32    C     0.59870   0.84363   0.19338   0.00000  Uiso   1.00
O33    O     0.63987   0.94075   0.09131   0.00000  Uiso   1.00
O34    O     0.56307   0.90195   0.18385   0.00000  Uiso   1.00
O35    O     0.57187   0.95142   0.15391   0.00000  Uiso   1.00
C36    C     0.57205   0.84026   0.08494   0.00000  Uiso   1.00
C37    C     0.55172   0.93310   0.17900   0.00000  Uiso   1.00
C38    C     0.66109   0.92534   0.06591   0.00000  Uiso   1.00
C39    C     0.68583   0.92829   0.17141   0.00000  Uiso   1.00
Gd40   Gd    0.89997   0.06926   0.62628   0.00000  Uiso   1.00
Gd41   Gd    0.82324   0.15989   0.62904   0.00000  Uiso   1.00
O42    O     0.87148   0.18109   0.66594   0.00000  Uiso   1.00
O43    O     0.87828   0.12067   0.66086   0.00000  Uiso   1.00
O44    O     0.92730   0.11968   0.59141   0.00000  Uiso   1.00
O45    O     0.87110   0.13314   0.59562   0.00000  Uiso   1.00
O46    O     0.88855   0.02984   0.67064   0.00000  Uiso   1.00
O47    O     0.93640   0.07701   0.67156   0.00000  Uiso   1.00
O48    O     0.85224   0.04674   0.58935   0.00000  Uiso   1.00
C49    C     0.91617   0.04866   0.68774   0.00000  Uiso   1.00
O50    O     0.84333   0.10679   0.59418   0.00000  Uiso   1.00
O51    O     0.85017   0.09449   0.65932   0.00000  Uiso   1.00
C52    C     0.90669   0.14486   0.58861   0.00000  Uiso   1.00
O53    O     0.79467   0.11024   0.66350   0.00000  Uiso   1.00
O54    O     0.83646   0.20028   0.58561   0.00000  Uiso   1.00
O55    O     0.78707   0.15490   0.58393   0.00000  Uiso   1.00
C56    C     0.89263   0.15655   0.66922   0.00000  Uiso   1.00
C57    C     0.80818   0.18332   0.56853   0.00000  Uiso   1.00
C58    C     0.81415   0.08405   0.66603   0.00000  Uiso   1.00
C59    C     0.83010   0.07032   0.58610   0.00000  Uiso   1.00
Gd60   Gd    0.33729   0.36470   0.33768   0.00000  Uiso   1.00
Gd61   Gd    0.41138   0.39399   0.43342   0.00000  Uiso   1.00
O62    O     0.35864   0.42285   0.44514   0.00000  Uiso   1.00
O63    O     0.35271   0.40801   0.38716   0.00000  Uiso   1.00
O64    O     0.31423   0.32665   0.38545   0.00000  Uiso   1.00
O65    O     0.36854   0.34641   0.40594   0.00000  Uiso   1.00
O66    O     0.34061   0.40947   0.29821   0.00000  Uiso   1.00
O67    O     0.29206   0.39925   0.33851   0.00000  Uiso   1.00
O68    O     0.39130   0.33794   0.32472   0.00000  Uiso   1.00
C69    C     0.30861   0.41855   0.31182   0.00000  Uiso   1.00
O70    O     0.39720   0.34906   0.38367   0.00000  Uiso   1.00
O71    O     0.38140   0.41149   0.36464   0.00000  Uiso   1.00
C72    C     0.33365   0.33101   0.41292   0.00000  Uiso   1.00
O73    O     0.43643   0.42928   0.38447   0.00000  Uiso   1.00
O74    O     0.40090   0.35450   0.47751   0.00000  Uiso   1.00
O75    O     0.45280   0.35651   0.44128   0.00000  Uiso   1.00
C76    C     0.33694   0.41747   0.41955   0.00000  Uiso   1.00
C77    C     0.43243   0.34245   0.46943   0.00000  Uiso   1.00
C78    C     0.41669   0.42532   0.35729   0.00000  Uiso   1.00
C79    C     0.41266   0.34102   0.35061   0.00000  Uiso   1.00
C80    C     0.27886   0.71594   0.96853   0.00000  Uiso   1.00
C81    C     0.32662   0.73120   1.01178   0.00000  Uiso   1.00
H82    H     0.43634   0.87178   1.01684   0.00000  Uiso   1.00
C83    C     0.33080   0.77049   0.96077   0.00000  Uiso   1.00
C84    C     0.29761   0.74767   0.94914   0.00000  Uiso   1.00
N85    N     0.50933   0.82059   0.06029   0.00000  Uiso   1.00
N86    N     0.22872   0.69464   0.92560   0.00000  Uiso   1.00
O87    O     0.50819   0.86569   0.02150   0.00000  Uiso   1.00
O88    O     0.23964   0.65516   0.96562   0.00000  Uiso   1.00
H89    H     0.56246   0.83304   0.02875   0.00000  Uiso   1.00
H90    H     0.55397   0.78875   0.04936   0.00000  Uiso   1.00
H91    H     0.37509   0.83995   0.99638   0.00000  Uiso   1.00
H92    H     0.46397   0.75892   0.02730   0.00000  Uiso   1.00
H93    H     0.40351   0.72744   0.00644   0.00000  Uiso   1.00
H94    H     0.49339   0.80037   0.07739   0.00000  Uiso   1.00
H95    H     0.27955   0.68497   1.01645   0.00000  Uiso   1.00
H96    H     0.21041   0.63421   0.90933   0.00000  Uiso   1.00
H97    H     0.22856   0.66367   0.87328   0.00000  Uiso   1.00
H98    H     0.33755   0.72415   1.03599   0.00000  Uiso   1.00
H99    H     0.28805   0.75402   0.92399   0.00000  Uiso   1.00
H100   H     0.34529   0.79386   0.94469   0.00000  Uiso   1.00
H101   H     0.23102   0.72308   0.91852   0.00000  Uiso   1.00
C102   C     0.42905   0.84029   1.01527   0.00000  Uiso   1.00
C103   C     0.49190   0.83664   0.03588   0.00000  Uiso   1.00
C104   C     0.54982   0.81965   0.05424   0.00000  Uiso   1.00
C105   C     0.38412   0.78133   1.00107   0.00000  Uiso   1.00
C106   C     0.45421   0.81792   0.02513   0.00000  Uiso   1.00
C107   C     0.39428   0.82214   1.00325   0.00000  Uiso   1.00
C108   C     0.44442   0.77708   0.02180   0.00000  Uiso   1.00
C109   C     0.40997   0.75902   0.00952   0.00000  Uiso   1.00
C110   C     0.29330   0.70885   1.00061   0.00000  Uiso   1.00
C111   C     0.24752   0.68709   0.95363   0.00000  Uiso   1.00
C112   C     0.21089   0.66318   0.90030   0.00000  Uiso   1.00
C113   C     0.34632   0.76149   0.99142   0.00000  Uiso   1.00
C114   C     0.49184   0.04757   0.21911   0.00000  Uiso   1.00
C115   C     0.45276   0.09516   0.24719   0.00000  Uiso   1.00
H116   H     0.51273   0.22030   0.35267   0.00000  Uiso   1.00
C117   C     0.52016   0.10905   0.25088   0.00000  Uiso   1.00
C118   C     0.52380   0.07304   0.23087   0.00000  Uiso   1.00
N119   N     0.45716   0.29935   0.32357   0.00000  Uiso   1.00
N120   N     0.52058   0.98716   0.20728   0.00000  Uiso   1.00
O121   O     0.47260   0.27488   0.37268   0.00000  Uiso   1.00
O122   O     0.47140   0.99390   0.17796   0.00000  Uiso   1.00
H123   H     0.46632   0.34246   0.36944   0.00000  Uiso   1.00
H124   H     0.46804   0.36048   0.32544   0.00000  Uiso   1.00
H125   H     0.52011   0.15710   0.31901   0.00000  Uiso   1.00
H126   H     0.43114   0.23309   0.27996   0.00000  Uiso   1.00
H127   H     0.43971   0.17104   0.24562   0.00000  Uiso   1.00
H128   H     0.45352   0.29566   0.29542   0.00000  Uiso   1.00
H129   H     0.43120   0.04024   0.21879   0.00000  Uiso   1.00
H130   H     0.49319   0.93298   0.18142   0.00000  Uiso   1.00
H131   H     0.50985   0.93075   0.22525   0.00000  Uiso   1.00
H132   H     0.42487   0.10278   0.25382   0.00000  Uiso   1.00
H133   H     0.55168   0.06548   0.22433   0.00000  Uiso   1.00
H134   H     0.54528   0.12817   0.25935   0.00000  Uiso   1.00
H135   H     0.54114   1.00005   0.22464   0.00000  Uiso   1.00
C136   C     0.49659   0.20974   0.32937   0.00000  Uiso   1.00
C137   C     0.46711   0.26993   0.34006   0.00000  Uiso   1.00
C138   C     0.45328   0.33759   0.34301   0.00000  Uiso   1.00
C139   C     0.48057   0.15909   0.27960   0.00000  Uiso   1.00
C140   C     0.47176   0.23202   0.31878   0.00000  Uiso   1.00
C141   C     0.50108   0.17375   0.30992   0.00000  Uiso   1.00
C142   C     0.45123   0.21733   0.28846   0.00000  Uiso   1.00
C143   C     0.45569   0.18137   0.26905   0.00000  Uiso   1.00
C144   C     0.45639   0.05931   0.22716   0.00000  Uiso   1.00
C145   C     0.49439   0.00826   0.19965   0.00000  Uiso   1.00
C146   C     0.51649   0.94471   0.19891   0.00000  Uiso   1.00
C147   C     0.48459   0.12053   0.25919   0.00000  Uiso   1.00
C148   C     0.54603   0.30910   0.50562   0.00000  Uiso   1.00
C149   C     0.59611   0.29690   0.53948   0.00000  Uiso   1.00
H150   H     0.69113   0.18375   0.46186   0.00000  Uiso   1.00
C151   C     0.58973   0.26612   0.47754   0.00000  Uiso   1.00
C152   C     0.55933   0.28503   0.47538   0.00000  Uiso   1.00
N153   N     0.76461   0.20842   0.53646   0.00000  Uiso   1.00
N154   N     0.48332   0.30961   0.48338   0.00000  Uiso   1.00
O155   O     0.73629   0.15848   0.49966   0.00000  Uiso   1.00
O156   O     0.50638   0.35440   0.52766   0.00000  Uiso   1.00
H157   H     0.80210   0.16974   0.51132   0.00000  Uiso   1.00
H158   H     0.82355   0.21908   0.52375   0.00000  Uiso   1.00
H159   H     0.63992   0.21661   0.45761   0.00000  Uiso   1.00
H160   H     0.70164   0.23665   0.57326   0.00000  Uiso   1.00
H161   H     0.65064   0.27058   0.57009   0.00000  Uiso   1.00
H162   H     0.76308   0.23513   0.55211   0.00000  Uiso   1.00
H163   H     0.55661   0.33458   0.56102   0.00000  Uiso   1.00
H164   H     0.43914   0.32658   0.52225   0.00000  Uiso   1.00
H165   H     0.42519   0.28624   0.48954   0.00000  Uiso   1.00
H166   H     0.60923   0.30337   0.56488   0.00000  Uiso   1.00
H167   H     0.54655   0.28055   0.44969   0.00000  Uiso   1.00
H168   H     0.59772   0.24792   0.45316   0.00000  Uiso   1.00
H169   H     0.48786   0.28726   0.46275   0.00000  Uiso   1.00
C170   C     0.68222   0.20276   0.48559   0.00000  Uiso   1.00
C171   C     0.73476   0.18989   0.51770   0.00000  Uiso   1.00
C172   C     0.80096   0.19502   0.53260   0.00000  Uiso   1.00
C173   C     0.64015   0.24847   0.51298   0.00000  Uiso   1.00
C174   C     0.70119   0.20847   0.51737   0.00000  Uiso   1.00
C175   C     0.65244   0.22239   0.48330   0.00000  Uiso   1.00
C176   C     0.68856   0.23282   0.54769   0.00000  Uiso   1.00
C177   C     0.65860   0.25245   0.54561   0.00000  Uiso   1.00
C178   C     0.56557   0.31563   0.53727   0.00000  Uiso   1.00
C179   C     0.51111   0.32616   0.50575   0.00000  Uiso   1.00
C180   C     0.44396   0.31501   0.49275   0.00000  Uiso   1.00
C181   C     0.60842   0.27065   0.51002   0.00000  Uiso   1.00
C182   C     0.71544   0.93776   0.94123   0.00000  Uiso   1.00
C183   C     0.71861   0.94177   0.87468   0.00000  Uiso   1.00
H184   H     0.83093   0.05266   0.80497   0.00000  Uiso   1.00
C185   C     0.74330   0.99850   0.91439   0.00000  Uiso   1.00
C186   C     0.73265   0.97723   0.94537   0.00000  Uiso   1.00
N187   N     0.77802   0.04301   0.71127   0.00000  Uiso   1.00
N188   N     0.70796   0.93134   0.01078   0.00000  Uiso   1.00
O189   O     0.83262   0.05307   0.73639   0.00000  Uiso   1.00
O190   O     0.69423   0.87903   0.96834   0.00000  Uiso   1.00
H191   H     0.81685   0.02345   0.66818   0.00000  Uiso   1.00
H192   H     0.77406   0.03280   0.65417   0.00000  Uiso   1.00
H193   H     0.80524   0.02579   0.86305   0.00000  Uiso   1.00
H194   H     0.72439   0.00875   0.76037   0.00000  Uiso   1.00
H195   H     0.69887   0.98311   0.81854   0.00000  Uiso   1.00
H196   H     0.74889   0.04211   0.71510   0.00000  Uiso   1.00
H197   H     0.69540   0.89013   0.90113   0.00000  Uiso   1.00
H198   H     0.65320   0.94638   0.01516   0.00000  Uiso   1.00
H199   H     0.68664   0.97842   0.04179   0.00000  Uiso   1.00
H200   H     0.71359   0.92719   0.84749   0.00000  Uiso   1.00
H201   H     0.73834   0.99157   0.97243   0.00000  Uiso   1.00
H202   H     0.75702   0.02866   0.91828   0.00000  Uiso   1.00
H203   H     0.73433   0.93647   0.02097   0.00000  Uiso   1.00
C204   C     0.80180   0.03820   0.80775   0.00000  Uiso   1.00
C205   C     0.79834   0.04412   0.74076   0.00000  Uiso   1.00
C206   C     0.79592   0.04355   0.67331   0.00000  Uiso   1.00
C207   C     0.75010   0.00207   0.84532   0.00000  Uiso   1.00
C208   C     0.78003   0.03308   0.77764   0.00000  Uiso   1.00
C209   C     0.78703   0.02296   0.84116   0.00000  Uiso   1.00
C210   C     0.74235   0.01386   0.78255   0.00000  Uiso   1.00
C211   C     0.72762  -0.00138   0.81599   0.00000  Uiso   1.00
C212   C     0.70847   0.92045   0.90546   0.00000  Uiso   1.00
C213   C     0.70506   0.91410   0.97351   0.00000  Uiso   1.00
C214   C     0.67657   0.94723   0.03255   0.00000  Uiso   1.00
C215   C     0.73642   0.98094   0.87871   0.00000  Uiso   1.00
C216   C     0.73146   0.95343   0.29293   0.00000  Uiso   1.00
C217   C     0.76911   0.96251   0.34525   0.00000  Uiso   1.00
H218   H     0.74765   0.08791   0.45848   0.00000  Uiso   1.00
C219   C     0.71227   0.99078   0.35051   0.00000  Uiso   1.00
C220   C     0.70589   0.97512   0.31432   0.00000  Uiso   1.00
N221   N     0.79079   0.04112   0.53779   0.00000  Uiso   1.00
N222   N     0.70814   0.95547   0.23146   0.00000  Uiso   1.00
O223   O     0.76712   0.09066   0.52127   0.00000  Uiso   1.00
O224   O     0.74399   0.91180   0.23968   0.00000  Uiso   1.00
H225   H     0.77384   0.08001   0.58389   0.00000  Uiso   1.00
H226   H     0.77727   0.03216   0.59366   0.00000  Uiso   1.00
H227   H     0.73409   0.05760   0.39750   0.00000  Uiso   1.00
H228   H     0.78717   0.98377   0.48012   0.00000  Uiso   1.00
H229   H     0.77280   0.95376   0.41975   0.00000  Uiso   1.00
H230   H     0.80167   0.01536   0.53046   0.00000  Uiso   1.00
H231   H     0.78303   0.93057   0.29366   0.00000  Uiso   1.00
H232   H     0.74400   0.94289   0.18197   0.00000  Uiso   1.00
H233   H     0.72001   0.98310   0.18212   0.00000  Uiso   1.00
H234   H     0.79430   0.95788   0.35617   0.00000  Uiso   1.00
H235   H     0.68080   0.98013   0.30362   0.00000  Uiso   1.00
H236   H     0.69220   0.00743   0.36634   0.00000  Uiso   1.00
H237   H     0.69159   0.97614   0.24318   0.00000  Uiso   1.00
C238   C     0.75353   0.05868   0.45050   0.00000  Uiso   1.00
C239   C     0.77571   0.05841   0.51255   0.00000  Uiso   1.00
C240   C     0.79069   0.05618   0.57679   0.00000  Uiso   1.00
C241   C     0.75222   1.00325   0.40374   0.00000  Uiso   1.00
C242   C     0.76890   0.03893   0.47483   0.00000  Uiso   1.00
C243   C     0.74533   0.04115   0.41554   0.00000  Uiso   1.00
C244   C     0.77580   0.00080   0.46288   0.00000  Uiso   1.00
C245   C     0.76755   0.98326   0.42781   0.00000  Uiso   1.00
C246   C     0.76270   0.94687   0.30927   0.00000  Uiso   1.00
C247   C     0.72767   0.93845   0.25337   0.00000  Uiso   1.00
C248   C     0.71676   0.95334   0.19106   0.00000  Uiso   1.00
C249   C     0.74425   0.98508   0.36614   0.00000  Uiso   1.00
C250   C     0.25970   0.57257   0.70071   0.00000  Uiso   1.00
C251   C     0.29750   0.54697   0.64696   0.00000  Uiso   1.00
H252   H     0.22829   0.41173   0.55691   0.00000  Uiso   1.00
C253   C     0.22950   0.52892   0.65215   0.00000  Uiso   1.00
C254   C     0.22695   0.55204   0.68594   0.00000  Uiso   1.00
N255   N     0.28774   0.44174   0.46190   0.00000  Uiso   1.00
N256   N     0.23107   0.58400   0.76551   0.00000  Uiso   1.00
O257   O     0.26859   0.39069   0.49566   0.00000  Uiso   1.00
O258   O     0.28129   0.62514   0.74235   0.00000  Uiso   1.00
H259   H     0.27995   0.38828   0.42680   0.00000  Uiso   1.00
H260   H     0.28696   0.43244   0.40435   0.00000  Uiso   1.00
H261   H     0.22365   0.45350   0.61518   0.00000  Uiso   1.00
H262   H     0.31873   0.49747   0.51274   0.00000  Uiso   1.00
H263   H     0.31303   0.53975   0.57000   0.00000  Uiso   1.00
H264   H     0.29191   0.47196   0.46109   0.00000  Uiso   1.00
H265   H     0.32062   0.58583   0.69131   0.00000  Uiso   1.00
H266   H     0.25249   0.62993   0.80537   0.00000  Uiso   1.00
H267   H     0.24200   0.58195   0.82030   0.00000  Uiso   1.00
H268   H     0.32519   0.54488   0.63276   0.00000  Uiso   1.00
H269   H     0.19933   0.55419   0.70025   0.00000  Uiso   1.00
H270   H     0.20375   0.51377   0.64127   0.00000  Uiso   1.00
H271   H     0.21196   0.55809   0.76127   0.00000  Uiso   1.00
C272   C     0.24688   0.43966   0.55955   0.00000  Uiso   1.00
C273   C     0.27636   0.42603   0.49492   0.00000  Uiso   1.00
C274   C     0.29573   0.41855   0.42689   0.00000  Uiso   1.00
C275   C     0.26765   0.50021   0.59712   0.00000  Uiso   1.00
C276   C     0.27329   0.45165   0.52998   0.00000  Uiso   1.00
C277   C     0.24400   0.46373   0.59274   0.00000  Uiso   1.00
C278   C     0.29725   0.48786   0.53451   0.00000  Uiso   1.00
C279   C     0.29438   0.51188   0.56763   0.00000  Uiso   1.00
C280   C     0.29492   0.57030   0.68056   0.00000  Uiso   1.00
C281   C     0.25774   0.59584   0.73722   0.00000  Uiso   1.00
C282   C     0.23217   0.60207   0.80365   0.00000  Uiso   1.00
C283   C     0.26483   0.52573   0.63247   0.00000  Uiso   1.00
C284   C     0.27502   0.45334   0.19942   0.00000  Uiso   1.00
C285   C     0.25908   0.44715   0.13603   0.00000  Uiso   1.00
H286   H     0.27643   0.58610   0.05886   0.00000  Uiso   1.00
C287   C     0.27007   0.51100   0.17017   0.00000  Uiso   1.00
C288   C     0.27754   0.49402   0.20062   0.00000  Uiso   1.00
N289   N     0.19666   0.53322   0.98779   0.00000  Uiso   1.00
N290   N     0.30082   0.45382   0.25934   0.00000  Uiso   1.00
O291   O     0.24487   0.58344   0.00040   0.00000  Uiso   1.00
O292   O     0.25737   0.40412   0.23921   0.00000  Uiso   1.00
H293   H     0.23300   0.54151   0.93814   0.00000  Uiso   1.00
H294   H     0.20003   0.49651   0.93809   0.00000  Uiso   1.00
H295   H     0.29229   0.55792   0.11156   0.00000  Uiso   1.00
H296   H     0.19071   0.48484   0.03880   0.00000  Uiso   1.00
H297   H     0.20501   0.45819   0.09248   0.00000  Uiso   1.00
H298   H     0.17103   0.51937   1.00022   0.00000  Uiso   1.00
H299   H     0.26388   0.39867   0.16499   0.00000  Uiso   1.00
H300   H     0.26012   0.44287   0.30526   0.00000  Uiso   1.00
H301   H     0.30061   0.47817   0.31494   0.00000  Uiso   1.00
H302   H     0.25245   0.42848   0.11111   0.00000  Uiso   1.00
H303   H     0.28346   0.51263   0.22574   0.00000  Uiso   1.00
H304   H     0.27058   0.54222   0.17263   0.00000  Uiso   1.00
H305   H     0.32223   0.47670   0.25190   0.00000  Uiso   1.00
C306   C     0.26058   0.55815   0.06592   0.00000  Uiso   1.00
C307   C     0.22526   0.55351   0.01025   0.00000  Uiso   1.00
C308   C     0.20366   0.52821   0.94751   0.00000  Uiso   1.00
C309   C     0.25023   0.50553   0.10602   0.00000  Uiso   1.00
C310   C     0.23226   0.53790   0.04437   0.00000  Uiso   1.00
C311   C     0.26956   0.54209   0.09629   0.00000  Uiso   1.00
C312   C     0.21248   0.50168   0.05460   0.00000  Uiso   1.00
C313   C     0.22115   0.48591   0.08519   0.00000  Uiso   1.00
C314   C     0.26600   0.43010   0.16671   0.00000  Uiso   1.00
C315   C     0.27756   0.43519   0.23347   0.00000  Uiso   1.00
C316   C     0.29128   0.44976   0.29892   0.00000  Uiso   1.00
C317   C     0.26025   0.48774   0.13768   0.00000  Uiso   1.00
C318   C     0.01981   0.21624   0.52846   0.00000  Uiso   1.00
C319   C     0.07266   0.25130   0.49121   0.00000  Uiso   1.00
H320   H     0.21860   0.20385   0.48762   0.00000  Uiso   1.00
C321   C     0.08438   0.21169   0.53715   0.00000  Uiso   1.00
C322   C     0.04557   0.20155   0.54660   0.00000  Uiso   1.00
N323   N     0.27711   0.30540   0.45252   0.00000  Uiso   1.00
N324   N     0.96248   0.19223   0.57024   0.00000  Uiso   1.00
O325   O     0.27968   0.25437   0.48365   0.00000  Uiso   1.00
O326   O     0.95802   0.20877   0.51361   0.00000  Uiso   1.00
H327   H     0.32201   0.34791   0.47030   0.00000  Uiso   1.00
H328   H     0.33370   0.29960   0.45937   0.00000  Uiso   1.00
H329   H     0.15069   0.18790   0.50345   0.00000  Uiso   1.00
H330   H     0.20668   0.32184   0.47310   0.00000  Uiso   1.00
H331   H     0.13937   0.30578   0.48883   0.00000  Uiso   1.00
H332   H     0.26056   0.32073   0.44028   0.00000  Uiso   1.00
H333   H     0.01491   0.25353   0.48652   0.00000  Uiso   1.00
H334   H     0.90619   0.19303   0.55874   0.00000  Uiso   1.00
H335   H     0.91555   0.20592   0.60586   0.00000  Uiso   1.00
H336   H     0.08234   0.27009   0.46925   0.00000  Uiso   1.00
H337   H     0.03615   0.18154   0.56753   0.00000  Uiso   1.00
H338   H     0.10346   0.20026   0.55194   0.00000  Uiso   1.00
H339   H     0.97936   0.18972   0.59068   0.00000  Uiso   1.00
C340   C     0.20163   0.22638   0.48765   0.00000  Uiso   1.00
C341   C     0.26026   0.27411   0.47162   0.00000  Uiso   1.00
C342   C     0.31765   0.32088   0.45097   0.00000  Uiso   1.00
C343   C     0.13961   0.24566   0.49788   0.00000  Uiso   1.00
C344   C     0.21844   0.26408   0.47868   0.00000  Uiso   1.00
C345   C     0.16272   0.21727   0.49700   0.00000  Uiso   1.00
C346   C     0.19512   0.29222   0.47886   0.00000  Uiso   1.00
C347   C     0.15623   0.28308   0.48819   0.00000  Uiso   1.00
C348   C     0.03393   0.24147   0.50086   0.00000  Uiso   1.00
C349   C     0.97831   0.20528   0.53687   0.00000  Uiso   1.00
C350   C     0.92172   0.18608   0.58078   0.00000  Uiso   1.00
C351   C     0.09839   0.23625   0.50899   0.00000  Uiso   1.00
C352   C     0.06856   0.80002   0.75524   0.00000  Uiso   1.00
C353   C     0.06393   0.86643   0.74539   0.00000  Uiso   1.00
H354   H     0.91068   0.89502   0.72599   0.00000  Uiso   1.00
C355   C     1.00736   0.81844   0.75252   0.00000  Uiso   1.00
C356   C     0.02912   0.79059   0.75749   0.00000  Uiso   1.00
N357   N     0.94744   1.01098   0.72263   0.00000  Uiso   1.00
N358   N     0.08086   0.73162   0.74396   0.00000  Uiso   1.00
O359   O     0.90267   0.96038   0.70728   0.00000  Uiso   1.00
O360   O     0.12426   0.78034   0.76590   0.00000  Uiso   1.00
H361   H     0.89540   0.02963   0.74121   0.00000  Uiso   1.00
H362   H     0.93568   0.06745   0.74059   0.00000  Uiso   1.00
H363   H     0.94647   0.84757   0.73796   0.00000  Uiso   1.00
H364   H     0.01246   0.98020   0.71473   0.00000  Uiso   1.00
H365   H     0.04825   0.93487   0.72899   0.00000  Uiso   1.00
H366   H     0.97478   0.02143   0.72948   0.00000  Uiso   1.00
H367   H     0.11587   0.84711   0.74936   0.00000  Uiso   1.00
H368   H     0.13360   0.71583   0.72188   0.00000  Uiso   1.00
H369   H     0.09355   0.67780   0.71820   0.00000  Uiso   1.00
H370   H     0.07941   0.89511   0.74133   0.00000  Uiso   1.00
H371   H     0.01476   0.76167   0.76313   0.00000  Uiso   1.00
H372   H     0.97730   0.80886   0.75456   0.00000  Uiso   1.00
H373   H     0.05373   0.72246   0.73595   0.00000  Uiso   1.00
C374   C     0.94086   0.90379   0.72662   0.00000  Uiso   1.00
C375   C     0.93462   0.97162   0.71594   0.00000  Uiso   1.00
C376   C     0.92269   0.04001   0.72519   0.00000  Uiso   1.00
C377   C     1.00131   0.88624   0.73627   0.00000  Uiso   1.00
C378   C     0.95814   0.94215   0.72084   0.00000  Uiso   1.00
C379   C     0.96194   0.87634   0.73404   0.00000  Uiso   1.00
C380   C     0.99739   0.95177   0.72099   0.00000  Uiso   1.00
C381   C     0.01844   0.92463   0.72893   0.00000  Uiso   1.00
C382   C     0.08551   0.83859   0.75043   0.00000  Uiso   1.00
C383   C     0.09265   0.77006   0.75610   0.00000  Uiso   1.00
C384   C     0.10634   0.70299   0.73663   0.00000  Uiso   1.00
C385   C     0.02431   0.85685   0.74494   0.00000  Uiso   1.00
C386   C     0.94759   0.27197   0.72861   0.00000  Uiso   1.00
C387   C     0.96771   0.32517   0.77477   0.00000  Uiso   1.00
H388   H     0.08028   0.45292   0.72637   0.00000  Uiso   1.00
C389   C     0.97836   0.33539   0.70976   0.00000  Uiso   1.00
C390   C     0.96098   0.29702   0.70073   0.00000  Uiso   1.00
N391   N     0.04431   0.53425   0.80249   0.00000  Uiso   1.00
N392   N     0.94283   0.21027   0.68671   0.00000  Uiso   1.00
O393   O     0.09586   0.51306   0.77265   0.00000  Uiso   1.00
O394   O     0.90968   0.21308   0.74266   0.00000  Uiso   1.00
H395   H     0.08024   0.58388   0.78450   0.00000  Uiso   1.00
H396   H     0.04336   0.59396   0.82005   0.00000  Uiso   1.00
H397   H     0.04681   0.38718   0.71081   0.00000  Uiso   1.00
H398   H    -0.00139   0.46684   0.82136   0.00000  Uiso   1.00
H399   H     0.96420   0.40220   0.80455   0.00000  Uiso   1.00
H400   H     0.01539   0.52876   0.81060   0.00000  Uiso   1.00
H401   H     0.94023   0.26834   0.78792   0.00000  Uiso   1.00
H402   H     0.93541   0.15340   0.70386   0.00000  Uiso   1.00
H403   H     0.95175   0.15734   0.65602   0.00000  Uiso   1.00
H404   H     0.97053   0.33530   0.80358   0.00000  Uiso   1.00
H405   H     0.95798   0.28731   0.67191   0.00000  Uiso   1.00
H406   H    -0.01145   0.35397   0.68771   0.00000  Uiso   1.00
H407   H     0.96188   0.22452   0.66689   0.00000  Uiso   1.00
C408   C     0.05498   0.44215   0.74368   0.00000  Uiso   1.00
C409   C     0.06233   0.50553   0.78336   0.00000  Uiso   1.00
C410   C     0.06400   0.57408   0.81039   0.00000  Uiso   1.00
C411   C     0.00262   0.38971   0.75623   0.00000  Uiso   1.00
C412   C     0.04168   0.46559   0.77455   0.00000  Uiso   1.00
C413   C     0.03563   0.40466   0.73456   0.00000  Uiso   1.00
C414   C     0.00904   0.45033   0.79662   0.00000  Uiso   1.00
C415   C     0.98960   0.41290   0.78738   0.00000  Uiso   1.00
C416   C     0.95042   0.28679   0.76577   0.00000  Uiso   1.00
C417   C     0.93176   0.23022   0.71964   0.00000  Uiso   1.00
C418   C     0.93227   0.16796   0.67925   0.00000  Uiso   1.00
C419   C     0.98242   0.34967   0.74681   0.00000  Uiso   1.00
C420   C     0.96115   0.69747   0.93816   0.00000  Uiso   1.00
C421   C     0.91669   0.74275   0.94223   0.00000  Uiso   1.00
H422   H     0.83576   0.77903   0.08777   0.00000  Uiso   1.00
C423   C     0.92014   0.70817   0.99496   0.00000  Uiso   1.00
C424   C     0.94878   0.69004   0.97496   0.00000  Uiso   1.00
N425   N     0.75040   0.80833   0.04460   0.00000  Uiso   1.00
N426   N     0.01651   0.66322   0.93103   0.00000  Uiso   1.00
O427   O     0.75771   0.76842   0.08616   0.00000  Uiso   1.00
O428   O    -0.01581   0.66543   0.88285   0.00000  Uiso   1.00
H429   H     0.69992   0.76645   0.04663   0.00000  Uiso   1.00
H430   H     0.70272   0.80265   0.01517   0.00000  Uiso   1.00
H431   H     0.89254   0.75816   0.05350   0.00000  Uiso   1.00
H432   H     0.78728   0.77503   0.98527   0.00000  Uiso   1.00
H433   H     0.84170   0.75120   0.95126   0.00000  Uiso   1.00
H434   H     0.76447   0.82957   0.02773   0.00000  Uiso   1.00
H435   H     0.95365   0.73014   0.89363   0.00000  Uiso   1.00
H436   H     0.01924   0.61249   0.89295   0.00000  Uiso   1.00
H437   H     0.03894   0.61262   0.93544   0.00000  Uiso   1.00
H438   H     0.90492   0.76324   0.92897   0.00000  Uiso   1.00
H439   H     0.96003   0.66884   0.98777   0.00000  Uiso   1.00
H440   H     0.90995   0.70015   0.02258   0.00000  Uiso   1.00
H441   H     0.02304   0.67559   0.95737   0.00000  Uiso   1.00
C442   C     0.83737   0.77350   0.05794   0.00000  Uiso   1.00
C443   C     0.77082   0.78540   0.05892   0.00000  Uiso   1.00
C444   C     0.70988   0.79779   0.04287   0.00000  Uiso   1.00
C445   C     0.87165   0.75236   0.99954   0.00000  Uiso   1.00
C446   C     0.80733   0.77839   0.03911   0.00000  Uiso   1.00
C447   C     0.86955   0.76123   0.03829   0.00000  Uiso   1.00
C448   C     0.81031   0.77181   1.00039   0.00000  Uiso   1.00
C449   C     0.84175   0.75842   0.98086   0.00000  Uiso   1.00
C450   C     0.94482   0.72404   0.92203   0.00000  Uiso   1.00
C451   C    -0.01193   0.67470   0.91553   0.00000  Uiso   1.00
C452   C     0.03598   0.63137   0.91378   0.00000  Uiso   1.00
C453   C     0.90365   0.73477   0.97887   0.00000  Uiso   1.00
C454   C     0.47900   0.53692   0.29955   0.00000  Uiso   1.00
C455   C     0.52363   0.59277   0.27799   0.00000  Uiso   1.00
H456   H     0.47097   0.73484   0.26374   0.00000  Uiso   1.00
C457   C     0.45693   0.58981   0.27497   0.00000  Uiso   1.00
C458   C     0.44937   0.55423   0.29069   0.00000  Uiso   1.00
N459   N     0.57246   0.78298   0.22041   0.00000  Uiso   1.00
N460   N     0.43874   0.47245   0.31230   0.00000  Uiso   1.00
O461   O     0.51107   0.78736   0.22675   0.00000  Uiso   1.00
O462   O     0.49863   0.48718   0.32600   0.00000  Uiso   1.00
H463   H     0.56226   0.83975   0.24363   0.00000  Uiso   1.00
H464   H     0.60858   0.82992   0.24606   0.00000  Uiso   1.00
H465   H     0.45374   0.66933   0.28301   0.00000  Uiso   1.00
H466   H     0.57029   0.70280   0.19864   0.00000  Uiso   1.00
H467   H     0.55281   0.63668   0.21755   0.00000  Uiso   1.00
H468   H     0.59326   0.76530   0.21622   0.00000  Uiso   1.00
H469   H     0.53972   0.54559   0.30093   0.00000  Uiso   1.00
H470   H     0.46179   0.42101   0.31438   0.00000  Uiso   1.00
H471   H     0.41608   0.41332   0.29876   0.00000  Uiso   1.00
H472   H     0.55255   0.60760   0.27419   0.00000  Uiso   1.00
H473   H     0.42020   0.54099   0.29594   0.00000  Uiso   1.00
H474   H     0.43348   0.60188   0.26798   0.00000  Uiso   1.00
H475   H     0.41533   0.48100   0.30377   0.00000  Uiso   1.00
C476   C     0.48896   0.71362   0.25319   0.00000  Uiso   1.00
C477   C     0.53506   0.76655   0.22489   0.00000  Uiso   1.00
C478   C     0.58509   0.82507   0.22824   0.00000  Uiso   1.00
C479   C     0.50239   0.64791   0.25265   0.00000  Uiso   1.00
C480   C     0.52282   0.72465   0.23097   0.00000  Uiso   1.00
C481   C     0.47891   0.67587   0.26404   0.00000  Uiso   1.00
C482   C     0.54501   0.69598   0.21732   0.00000  Uiso   1.00
C483   C     0.53483   0.65797   0.22801   0.00000  Uiso   1.00
C484   C     0.51615   0.55726   0.29367   0.00000  Uiso   1.00
C485   C     0.47256   0.49760   0.31374   0.00000  Uiso   1.00
C486   C     0.43425   0.43133   0.31889   0.00000  Uiso   1.00
C487   C     0.49418   0.60935   0.26812   0.00000  Uiso   1.00
loop_
_geom_bond_atom_site_label_1
_geom_bond_atom_site_label_2
_geom_bond_distance
_geom_bond_site_symmetry_2
_ccdc_geom_bond_type
Gd0    O3      2.131   .     S
Gd0    O4      2.228   .     S
Gd0    O6      2.202   .     S
Gd0    O7      2.199   .     S
Gd0    O8      2.240   .     S
Gd0    O11     2.242   .     S
Gd1    O2      2.266   .     S
Gd1    O5      2.369   .     S
Gd1    O10     2.237   .     S
Gd1    O13     2.381   .     S
Gd1    O14     2.204   .     S
Gd1    O15     2.202   .     S
O2     C16     1.241   .     A
O3     C16     1.244   .     A
O4     C12     1.304   .     A
O5     C12     1.314   .     A
O6     C9      1.284   .     A
O7     C9      1.281   .     A
O8     C19     1.251   .     A
C9     C384    1.492   .     S
O10    C19     1.284   .     A
O11    C18     1.291   .     A
C12    C282    1.499   .     S
O13    C18     1.309   .     A
O14    C17     1.284   .     A
O15    C17     1.283   .     A
C16    C410    1.494   .     S
C17    C308    1.491   .     S
C18    C452    1.497   .     S
C19    C112    1.494   .     S
Gd20   O23     2.230   .     S
Gd20   O24     2.217   .     S
Gd20   O26     2.247   .     S
Gd20   O27     2.235   .     S
Gd20   O28     2.233   .     S
Gd20   O31     2.277   .     S
Gd21   O22     2.248   .     S
Gd21   O25     2.272   .     S
Gd21   O30     2.245   .     S
Gd21   O33     2.233   .     S
Gd21   O34     2.249   .     S
Gd21   O35     2.246   .     S
O22    C36     1.272   .     A
O23    C36     1.269   .     A
O24    C32     1.260   .     A
O25    C32     1.278   .     A
O26    C29     1.267   .     A
O27    C29     1.257   .     A
O28    C39     1.277   .     A
C29    C444    1.477   .     S
O30    C39     1.278   .     A
O31    C38     1.278   .     A
C32    C478    1.489   .     S
O33    C38     1.267   .     A
O34    C37     1.270   .     A
O35    C37     1.262   .     A
C36    C104    1.500   .     S
C37    C146    1.489   .     S
C38    C214    1.512   .     S
C39    C248    1.495   .     S
Gd40   O43     2.278   .     S
Gd40   O44     2.304   .     S
Gd40   O46     2.204   .     S
Gd40   O47     2.204   .     S
Gd40   O48     2.294   .     S
Gd40   O51     2.301   .     S
Gd41   O42     2.302   .     S
Gd41   O45     2.277   .     S
Gd41   O50     2.306   .     S
Gd41   O53     2.286   .     S
Gd41   O54     2.201   .     S
Gd41   O55     2.201   .     S
O42    C56     1.274   .     A
O43    C56     1.286   .     A
O44    C52     1.274   .     A
O45    C52     1.285   .     A
O46    C49     1.282   .     A
O47    C49     1.281   .     A
O48    C59     1.274   .     A
C49    C376    1.492   .     S
O50    C59     1.293   .     A
O51    C58     1.292   .     A
C52    C350    1.494   .     S
O53    C58     1.271   .     A
O54    C57     1.281   .     A
O55    C57     1.282   .     A
C56    C418    1.498   .     S
C57    C172    1.487   .     S
C58    C206    1.491   .     S
C59    C240    1.492   .     S
Gd60   O63     2.277   .     S
Gd60   O64     2.304   .     S
Gd60   O66     2.229   .     S
Gd60   O67     2.201   .     S
Gd60   O68     2.295   .     S
Gd60   O71     2.295   .     S
Gd61   O62     2.292   .     S
Gd61   O65     2.291   .     S
Gd61   O70     2.305   .     S
Gd61   O73     2.296   .     S
Gd61   O74     2.199   .     S
Gd61   O75     2.227   .     S
O62    C76     1.270   .     A
O63    C76     1.285   .     A
O64    C72     1.275   .     A
O65    C72     1.289   .     A
O66    C69     1.284   .     A
O67    C69     1.278   .     A
O68    C79     1.277   .     A
C69    C316    1.500   .     S
O70    C79     1.292   .     A
O71    C78     1.291   .     A
C72    C342    1.498   .     S
O73    C78     1.274   .     A
O74    C77     1.278   .     A
O75    C77     1.285   .     A
C76    C274    1.492   .     S
C77    C180    1.499   .     S
C78    C486    1.492   .     S
C79    C138    1.489   .     S
C80    C84     1.411   .     A
C80    C110    1.406   .     A
C80    C111    1.488   .     S
C81    H98     1.083   .     S
C81    C110    1.393   .     A
C81    C113    1.403   .     A
H82    C102    1.082   .     S
C83    C84     1.401   .     A
C83    H100    1.083   .     S
C83    C113    1.404   .     A
C84    H99     1.081   .     S
N85    H94     1.046   .     S
N85    C103    1.376   .     S
N85    C104    1.463   .     S
N86    H101    1.044   .     S
N86    C111    1.372   .     S
N86    C112    1.462   .     S
O87    C103    1.221   .     D
O88    C111    1.221   .     D
H89    C104    1.104   .     S
H90    C104    1.109   .     S
H91    C107    1.082   .     S
H92    C108    1.083   .     S
H93    C109    1.083   .     S
H95    C110    1.084   .     S
H96    C112    1.099   .     S
H97    C112    1.111   .     S
C102   C107    1.402   .     A
C102   C106    1.406   1_556 A
C103   C106    1.482   .     S
C105   C107    1.404   .     A
C105   C113    1.483   .     S
C105   C109    1.405   1_556 A
C106   C108    1.404   .     A
C106   C102    1.406   1_554 A
C108   C109    1.395   .     A
C109   C105    1.405   1_554 A
C114   C118    1.407   .     A
C114   C144    1.406   .     A
C114   C145    1.486   .     S
C115   H132    1.084   .     S
C115   C144    1.396   .     A
C115   C147    1.405   .     A
H116   C136    1.084   .     S
C117   C118    1.401   .     A
C117   H134    1.083   .     S
C117   C147    1.407   .     A
C118   H133    1.082   .     S
N119   H128    1.044   .     S
N119   C137    1.373   .     S
N119   C138    1.462   .     S
N120   H135    1.043   .     S
N120   C146    1.465   .     S
N120   C145    1.374   1_565 S
O121   C137    1.221   .     D
O122   C145    1.221   1_565 D
H123   C138    1.109   .     S
H124   C138    1.106   .     S
H125   C141    1.082   .     S
H126   C142    1.082   .     S
H127   C143    1.083   .     S
H129   C144    1.083   .     S
H130   C146    1.111   .     S
H131   C146    1.112   .     S
C136   C140    1.406   .     A
C136   C141    1.398   .     A
C137   C140    1.484   .     S
C139   C141    1.405   .     A
C139   C143    1.406   .     A
C139   C147    1.486   .     S
C140   C142    1.406   .     A
C142   C143    1.397   .     A
C145   N120    1.374   1_545 S
C145   O122    1.221   1_545 D
C148   C152    1.402   .     A
C148   C178    1.404   .     A
C148   C179    1.493   .     S
C149   H166    1.077   .     S
C149   C178    1.399   .     A
C149   C181    1.416   .     A
H150   C170    1.084   .     S
C151   C152    1.398   .     A
C151   H168    1.075   .     S
C151   C181    1.417   .     A
C152   H167    1.080   .     S
N153   H162    1.044   .     S
N153   C171    1.373   .     S
N153   C172    1.462   .     S
N154   H169    1.043   .     S
N154   C179    1.377   .     S
N154   C180    1.467   .     S
O155   C171    1.221   .     D
O156   C179    1.221   .     D
H157   C172    1.111   .     S
H158   C172    1.111   .     S
H159   C175    1.075   .     S
H160   C176    1.083   .     S
H161   C177    1.076   .     S
H163   C178    1.084   .     S
H164   C180    1.112   .     S
H165   C180    1.111   .     S
C170   C174    1.398   .     A
C170   C175    1.395   .     A
C171   C174    1.481   .     S
C173   C175    1.417   .     A
C173   C177    1.418   .     A
C173   C181    1.519   .     S
C174   C176    1.401   .     A
C176   C177    1.399   .     A
C182   C186    1.408   .     A
C182   C212    1.408   .     A
C182   C213    1.493   .     S
C183   H200    1.084   .     S
C183   C212    1.398   .     A
C183   C215    1.405   .     A
H184   C204    1.084   .     S
C185   C186    1.405   .     A
C185   C215    1.407   .     A
C185   H202    1.084   1_565 S
C186   H201    1.082   .     S
N187   H196    1.043   .     S
N187   C205    1.371   .     S
N187   C206    1.460   .     S
N188   H203    1.046   .     S
N188   C214    1.464   .     S
N188   C213    1.433   1_554 S
O189   C205    1.221   .     D
O190   C213    1.219   .     D
H191   C206    1.110   .     S
H192   C206    1.107   .     S
H193   C209    1.083   .     S
H194   C210    1.080   .     S
H195   C211    1.083   1_565 S
H197   C212    1.083   .     S
H198   C214    1.114   .     S
H199   C214    1.113   .     S
H202   C185    1.084   1_545 S
C204   C208    1.407   .     A
C204   C209    1.398   .     A
C205   C208    1.491   .     S
C207   C209    1.405   .     A
C207   C211    1.405   .     A
C207   C215    1.488   1_545 S
C208   C210    1.410   .     A
C210   C211    1.399   .     A
C211   H195    1.083   1_545 S
C213   N188    1.433   1_556 S
C215   C207    1.488   1_565 S
C216   C220    1.410   .     A
C216   C246    1.408   .     A
C216   C247    1.494   .     S
C217   H234    1.085   .     S
C217   C246    1.395   .     A
C217   C249    1.403   .     A
H218   C238    1.082   .     S
C219   C220    1.402   .     A
C219   C249    1.408   .     A
C219   H236    1.084   1_565 S
C220   H235    1.082   .     S
N221   H230    1.042   .     S
N221   C239    1.374   .     S
N221   C240    1.462   .     S
N222   H237    1.043   .     S
N222   C247    1.378   .     S
N222   C248    1.469   .     S
O223   C239    1.221   .     D
O224   C247    1.220   .     D
H225   C240    1.109   .     S
H226   C240    1.106   .     S
H227   C243    1.082   .     S
H228   C244    1.078   1_565 S
H229   C245    1.084   .     S
H231   C246    1.080   .     S
H232   C248    1.114   .     S
H233   C248    1.109   .     S
H236   C219    1.084   1_545 S
C238   C242    1.408   .     A
C238   C243    1.394   .     A
C239   C242    1.494   .     S
C241   C245    1.405   .     A
C241   C249    1.485   .     S
C241   C243    1.402   1_565 A
C242   C244    1.411   .     A
C243   C241    1.402   1_545 A
C244   H228    1.078   1_545 S
C244   C245    1.398   1_545 A
C245   C244    1.398   1_565 A
C250   C254    1.405   .     A
C250   C280    1.405   .     A
C250   C281    1.482   .     S
C251   H268    1.083   .     S
C251   C280    1.397   .     A
C251   C283    1.406   .     A
H252   C272    1.084   .     S
C253   C254    1.399   .     A
C253   H270    1.083   .     S
C253   C283    1.407   .     A
C254   H269    1.083   .     S
N255   H264    1.044   .     S
N255   C273    1.372   .     S
N255   C274    1.461   .     S
N256   H271    1.045   .     S
N256   C281    1.375   .     S
N256   C282    1.465   .     S
O257   C273    1.220   .     D
O258   C281    1.222   .     D
H259   C274    1.109   .     S
H260   C274    1.109   .     S
H261   C277    1.083   .     S
H262   C278    1.082   .     S
H263   C279    1.082   .     S
H265   C280    1.084   .     S
H266   C282    1.111   .     S
H267   C282    1.112   .     S
C272   C276    1.404   .     A
C272   C277    1.399   .     A
C273   C276    1.481   .     S
C275   C277    1.407   .     A
C275   C279    1.406   .     A
C275   C283    1.487   .     S
C276   C278    1.405   .     A
C278   C279    1.396   .     A
C284   C288    1.405   .     A
C284   C314    1.404   .     A
C284   C315    1.482   .     S
C285   H302    1.083   .     S
C285   C314    1.398   .     A
C285   C317    1.407   .     A
H286   C306    1.083   .     S
C287   C288    1.397   .     A
C287   H304    1.082   .     S
C287   C317    1.405   .     A
C288   H303    1.083   .     S
N289   H298    1.044   .     S
N289   C308    1.460   .     S
N289   C307    1.435   1_556 S
N290   H305    1.045   .     S
N290   C315    1.372   .     S
N290   C316    1.464   .     S
O291   C307    1.220   .     D
O292   C315    1.221   .     D
H293   C308    1.111   .     S
H294   C308    1.111   .     S
H295   C311    1.083   .     S
H296   C312    1.080   .     S
H297   C313    1.082   .     S
H299   C314    1.083   .     S
H300   C316    1.113   .     S
H301   C316    1.112   .     S
C306   C310    1.407   .     A
C306   C311    1.398   .     A
C307   C310    1.485   .     S
C307   N289    1.435   1_554 S
C309   C311    1.406   .     A
C309   C313    1.405   .     A
C309   C317    1.487   .     S
C310   C312    1.406   .     A
C312   C313    1.395   .     A
C318   C322    1.407   .     A
C318   C348    1.407   .     A
C318   C349    1.487   1_455 S
C319   H336    1.083   .     S
C319   C348    1.396   .     A
C319   C351    1.405   .     A
H320   C340    1.083   .     S
C321   C322    1.398   .     A
C321   H338    1.083   .     S
C321   C351    1.407   .     A
C322   H337    1.081   .     S
N323   H332    1.042   .     S
N323   C341    1.376   .     S
N323   C342    1.468   .     S
N324   H339    1.043   .     S
N324   C349    1.376   .     S
N324   C350    1.464   .     S
O325   C341    1.219   .     D
O326   C349    1.220   .     D
H327   C342    1.112   .     S
H328   C342    1.113   .     S
H329   C345    1.083   .     S
H330   C346    1.080   .     S
H331   C347    1.083   .     S
H333   C348    1.083   .     S
H334   C350    1.109   .     S
H335   C350    1.109   .     S
C340   C344    1.407   .     A
C340   C345    1.398   .     A
C341   C344    1.490   .     S
C343   C345    1.405   .     A
C343   C347    1.405   .     A
C343   C351    1.487   .     S
C344   C346    1.407   .     A
C346   C347    1.397   .     A
C349   C318    1.487   1_655 S
C352   C356    1.402   .     A
C352   C382    1.400   .     A
C352   C383    1.486   .     S
C353   H370    1.075   .     S
C353   C382    1.395   .     A
C353   C385    1.416   .     A
H354   C374    1.084   .     S
C355   H372    1.077   .     S
C355   C356    1.399   1_655 A
C355   C385    1.417   1_655 A
C356   H371    1.082   .     S
C356   C355    1.399   1_455 A
N357   C375    1.375   .     S
N357   H366    1.042   1_565 S
N357   C376    1.460   1_565 S
N358   H373    1.044   .     S
N358   C383    1.374   .     S
N358   C384    1.463   .     S
O359   C375    1.221   .     D
O360   C383    1.221   .     D
H361   C376    1.110   .     S
H362   C376    1.112   .     S
H363   C379    1.076   .     S
H364   C380    1.080   1_455 S
H365   C381    1.075   .     S
H366   N357    1.042   1_545 S
H367   C382    1.084   .     S
H368   C384    1.112   .     S
H369   C384    1.112   .     S
C374   C378    1.403   .     A
C374   C379    1.399   .     A
C375   C378    1.490   .     S
C376   N357    1.460   1_545 S
C377   C379    1.416   .     A
C377   C381    1.416   1_655 A
C377   C385    1.518   1_655 S
C378   C380    1.402   .     A
C380   H364    1.080   1_655 S
C380   C381    1.396   1_655 A
C381   C377    1.416   1_455 A
C381   C380    1.396   1_455 A
C385   C355    1.417   1_455 A
C385   C377    1.518   1_455 S
C386   C390    1.407   .     A
C386   C416    1.406   .     A
C386   C417    1.484   .     S
C387   H404    1.083   .     S
C387   C416    1.396   .     A
C387   C419    1.404   .     A
H388   C408    1.084   .     S
C389   C390    1.396   .     A
C389   C419    1.404   .     A
C389   H406    1.083   1_655 S
C390   H405    1.081   .     S
N391   H400    1.044   .     S
N391   C409    1.374   .     S
N391   C410    1.460   .     S
N392   H407    1.044   .     S
N392   C417    1.373   .     S
N392   C418    1.462   .     S
O393   C409    1.221   .     D
O394   C417    1.221   .     D
H395   C410    1.108   .     S
H396   C410    1.111   .     S
H397   C413    1.083   .     S
H398   C414    1.081   .     S
H399   C415    1.083   .     S
H401   C416    1.083   .     S
H402   C418    1.111   .     S
H403   C418    1.111   .     S
H406   C389    1.083   1_455 S
C408   C412    1.405   .     A
C408   C413    1.395   .     A
C409   C412    1.481   .     S
C411   C413    1.405   .     A
C411   C415    1.404   1_455 A
C411   C419    1.481   1_455 S
C412   C414    1.406   .     A
C414   C415    1.395   1_455 A
C415   C411    1.404   1_655 A
C415   C414    1.395   1_655 A
C419   C411    1.481   1_655 S
C420   C424    1.405   .     A
C420   C450    1.405   .     A
C420   C451    1.484   1_655 S
C421   H438    1.083   .     S
C421   C450    1.400   .     A
C421   C453    1.409   .     A
H422   C442    1.082   .     S
C423   C424    1.400   .     A
C423   C453    1.409   .     A
C423   H440    1.083   1_556 S
C424   H439    1.083   .     S
N425   H434    1.043   .     S
N425   C443    1.368   .     S
N425   C444    1.456   .     S
N426   H441    1.045   .     S
N426   C451    1.374   .     S
N426   C452    1.466   .     S
O427   C443    1.222   .     D
O428   C451    1.220   .     D
H429   C444    1.110   .     S
H430   C444    1.115   .     S
H431   C447    1.084   .     S
H432   C448    1.084   .     S
H433   C449    1.083   .     S
H435   C450    1.083   .     S
H436   C452    1.111   .     S
H437   C452    1.112   .     S
H440   C423    1.083   1_554 S
C442   C446    1.402   .     A
C442   C447    1.403   .     A
C443   C446    1.476   .     S
C445   C449    1.408   .     A
C445   C453    1.494   .     S
C445   C447    1.411   1_556 A
C446   C448    1.402   1_554 A
C447   C445    1.411   1_554 A
C448   C449    1.395   .     A
C448   C446    1.402   1_556 A
C451   C420    1.484   1_455 S
C454   C458    1.410   .     A
C454   C484    1.409   .     A
C454   C485    1.496   .     S
C455   H472    1.083   .     S
C455   C484    1.397   .     A
C455   C487    1.404   .     A
H456   C476    1.083   .     S
C457   C458    1.400   .     A
C457   H474    1.083   .     S
C457   C487    1.406   .     A
C458   H473    1.079   .     S
N459   H468    1.045   .     S
N459   C477    1.372   .     S
N459   C478    1.467   .     S
N460   H475    1.041   .     S
N460   C485    1.377   .     S
N460   C486    1.463   .     S
O461   C477    1.222   .     D
O462   C485    1.222   .     D
H463   C478    1.113   .     S
H464   C478    1.111   .     S
H465   C481    1.084   .     S
H466   C482    1.082   .     S
H467   C483    1.084   .     S
H469   C484    1.083   .     S
H470   C486    1.109   .     S
H471   C486    1.110   .     S
C476   C480    1.406   .     A
C476   C481    1.396   .     A
C477   C480    1.488   .     S
C479   C481    1.405   .     A
C479   C483    1.410   .     A
C479   C487    1.490   .     S
C480   C482    1.407   .     A
C482   C483    1.402   .     A
