data_lcy+N248+E28
_audit_creation_date              2025-01-21
_audit_creation_method            'Materials Studio'
_symmetry_space_group_name_H-M    'P1'
_symmetry_Int_Tables_number       1
_symmetry_cell_setting            triclinic
loop_
_symmetry_equiv_pos_as_xyz
  x,y,z
_cell_length_a                    33.7759
_cell_length_b                    30.9715
_cell_length_c                    32.2633
_cell_angle_alpha                 88.5582
_cell_angle_beta                  89.2724
_cell_angle_gamma                 87.6203
loop_
_atom_site_label
_atom_site_type_symbol
_atom_site_fract_x
_atom_site_fract_y
_atom_site_fract_z
_atom_site_U_iso_or_equiv
_atom_site_adp_type
_atom_site_occupancy
O0     O     0.15106   0.66306   0.94334   0.00000  Uiso   1.00
Yb1    Yb    0.16016   0.60320   0.85625   0.00000  Uiso   1.00
C2     C     0.21097   0.57958   0.80267   0.00000  Uiso   1.00
Yb3    Yb    0.10050   0.63350   0.91642   0.00000  Uiso   1.00
O4     O     0.19650   0.64333   0.89234   0.00000  Uiso   1.00
C5     C     0.08504   0.65951   0.84103   0.00000  Uiso   1.00
C6     C     0.18614   0.66361   0.92591   0.00000  Uiso   1.00
O7     O     0.06161   0.68548   0.93212   0.00000  Uiso   1.00
C8     C     0.04686   0.66484   0.96286   0.00000  Uiso   1.00
O9     O     0.19308   0.55008   0.88730   0.00000  Uiso   1.00
O10    O     0.13615   0.57591   0.90996   0.00000  Uiso   1.00
O11    O     0.11347   0.56566   0.83309   0.00000  Uiso   1.00
O12    O     0.06219   0.62676   0.96971   0.00000  Uiso   1.00
O13    O     0.06495   0.58733   0.88040   0.00000  Uiso   1.00
C14    C     0.17104   0.55220   0.91784   0.00000  Uiso   1.00
C15    C     0.07842   0.56241   0.85008   0.00000  Uiso   1.00
O16    O     0.20526   0.55672   0.83582   0.00000  Uiso   1.00
O17    O     0.19081   0.61518   0.80045   0.00000  Uiso   1.00
O18    O     0.06060   0.64216   0.86353   0.00000  Uiso   1.00
O19    O     0.12198   0.65937   0.85869   0.00000  Uiso   1.00
O20    O     0.67757   0.93099   0.09559   0.00000  Uiso   1.00
Yb21   Yb    0.59567   0.86710   0.09297   0.00000  Uiso   1.00
C22    C     0.54149   0.84441   0.04732   0.00000  Uiso   1.00
Yb23   Yb    0.65699   0.89270   0.14992   0.00000  Uiso   1.00
O24    O     0.62876   0.91012   0.05118   0.00000  Uiso   1.00
C25    C     0.60099   0.94897   0.16069   0.00000  Uiso   1.00
C26    C     0.65958   0.93304   0.05962   0.00000  Uiso   1.00
O27    O     0.67267   0.93988   0.19306   0.00000  Uiso   1.00
C28    C     0.70447   0.91868   0.20354   0.00000  Uiso   1.00
O29    O     0.64424   0.85411   0.04832   0.00000  Uiso   1.00
O30    O     0.65158   0.83726   0.11300   0.00000  Uiso   1.00
O31    O     0.57260   0.83702   0.14757   0.00000  Uiso   1.00
O32    O     0.71111   0.88338   0.18437   0.00000  Uiso   1.00
O33    O     0.62260   0.85164   0.19225   0.00000  Uiso   1.00
C34    C     0.66721   0.83757   0.07364   0.00000  Uiso   1.00
C35    C     0.59080   0.83151   0.18262   0.00000  Uiso   1.00
O36    O     0.57198   0.81981   0.05525   0.00000  Uiso   1.00
O37    O     0.54197   0.88254   0.06169   0.00000  Uiso   1.00
O38    O     0.63000   0.94616   0.18319   0.00000  Uiso   1.00
O39    O     0.60562   0.92378   0.12586   0.00000  Uiso   1.00
O40    O     0.92268   0.15716   0.68397   0.00000  Uiso   1.00
Yb41   Yb    0.84622   0.17200   0.61939   0.00000  Uiso   1.00
C42    C     0.79257   0.22598   0.59554   0.00000  Uiso   1.00
Yb43   Yb    0.90306   0.10656   0.64413   0.00000  Uiso   1.00
O44    O     0.87611   0.20983   0.66303   0.00000  Uiso   1.00
C45    C     0.84893   0.09197   0.69828   0.00000  Uiso   1.00
C46    C     0.90623   0.19616   0.68536   0.00000  Uiso   1.00
O47    O     0.91821   0.05341   0.68545   0.00000  Uiso   1.00
C48    C     0.95116   0.04555   0.66641   0.00000  Uiso   1.00
O49    O     0.87016   0.20889   0.56725   0.00000  Uiso   1.00
O50    O     0.90433   0.15459   0.59666   0.00000  Uiso   1.00
O51    O     0.82733   0.12240   0.57987   0.00000  Uiso   1.00
O52    O     0.95884   0.07177   0.63639   0.00000  Uiso   1.00
O53    O     0.87261   0.06864   0.59950   0.00000  Uiso   1.00
C54    C     0.90168   0.18747   0.56660   0.00000  Uiso   1.00
C55    C     0.84330   0.08367   0.57673   0.00000  Uiso   1.00
O56    O     0.82662   0.22355   0.57723   0.00000  Uiso   1.00
O57    O     0.78933   0.20185   0.62786   0.00000  Uiso   1.00
O58    O     0.87989   0.06995   0.69564   0.00000  Uiso   1.00
O59    O     0.84492   0.12502   0.66833   0.00000  Uiso   1.00
O60    O     0.38402   0.30883   0.42115   0.00000  Uiso   1.00
Yb61   Yb    0.39749   0.38861   0.35032   0.00000  Uiso   1.00
C62    C     0.44943   0.44099   0.32815   0.00000  Uiso   1.00
Yb63   Yb    0.33699   0.33386   0.37962   0.00000  Uiso   1.00
O64    O     0.43250   0.35325   0.39537   0.00000  Uiso   1.00
C65    C     0.32776   0.39698   0.42983   0.00000  Uiso   1.00
C66    C     0.42024   0.32261   0.42005   0.00000  Uiso   1.00
O67    O     0.28860   0.32776   0.42230   0.00000  Uiso   1.00
C68    C     0.27803   0.29206   0.40768   0.00000  Uiso   1.00
O69    O     0.43005   0.35918   0.29995   0.00000  Uiso   1.00
O70    O     0.38102   0.32566   0.33168   0.00000  Uiso   1.00
O71    O     0.35170   0.41358   0.30935   0.00000  Uiso   1.00
O72    O     0.30100   0.27716   0.37901   0.00000  Uiso   1.00
O73    O     0.30256   0.36932   0.33240   0.00000  Uiso   1.00
C74    C     0.41132   0.32590   0.30170   0.00000  Uiso   1.00
C75    C     0.31618   0.39910   0.30739   0.00000  Uiso   1.00
O76    O     0.44618   0.40511   0.30946   0.00000  Uiso   1.00
O77    O     0.42479   0.44755   0.35766   0.00000  Uiso   1.00
O78    O     0.30565   0.36657   0.42972   0.00000  Uiso   1.00
O79    O     0.35644   0.39548   0.39883   0.00000  Uiso   1.00
C80    C     0.43312   0.79731   1.00375   0.00000  Uiso   1.00
C81    C     0.46497   0.76844   0.01353   0.00000  Uiso   1.00
C82    C     0.50154   0.78397   0.02435   0.00000  Uiso   1.00
C83    C     0.50652   0.82861   0.02664   0.00000  Uiso   1.00
C84    C     0.47539   0.85750   1.01468   0.00000  Uiso   1.00
C85    C     0.43909   0.84194   1.00282   0.00000  Uiso   1.00
C86    C     0.39359   0.78097   0.99602   0.00000  Uiso   1.00
N87    N     0.36728   0.80403   0.97193   0.00000  Uiso   1.00
N88    N     0.33173   0.78905   0.96471   0.00000  Uiso   1.00
C89    C     0.32079   0.75076   0.98183   0.00000  Uiso   1.00
N90    N     0.34688   0.72800   1.00647   0.00000  Uiso   1.00
N91    N     0.38259   0.74280   1.01338   0.00000  Uiso   1.00
C92    C     0.28290   0.73243   0.97063   0.00000  Uiso   1.00
C93    C     0.26433   0.70223   0.99690   0.00000  Uiso   1.00
C94    C     0.23085   0.68144   0.98360   0.00000  Uiso   1.00
C95    C     0.21632   0.69001   0.94362   0.00000  Uiso   1.00
C96    C     0.23393   0.72124   0.91810   0.00000  Uiso   1.00
C97    C     0.26651   0.74280   0.93172   0.00000  Uiso   1.00
H98    H     0.46135   0.73386   0.01370   0.00000  Uiso   1.00
H99    H     0.52518   0.76103   0.03323   0.00000  Uiso   1.00
H100   H     0.47859   0.89209   1.01607   0.00000  Uiso   1.00
H101   H     0.41512   0.86486   0.99499   0.00000  Uiso   1.00
H102   H     0.27620   0.69407   1.02725   0.00000  Uiso   1.00
H103   H     0.21755   0.65728   1.00357   0.00000  Uiso   1.00
H104   H     0.22301   0.72817   0.88711   0.00000  Uiso   1.00
H105   H     0.28014   0.76593   0.91087   0.00000  Uiso   1.00
C106   C     0.44511   0.21146   0.23535   0.00000  Uiso   1.00
C107   C     0.41319   0.21179   0.26369   0.00000  Uiso   1.00
C108   C     0.40120   0.24968   0.28363   0.00000  Uiso   1.00
C109   C     0.42122   0.28794   0.27622   0.00000  Uiso   1.00
C110   C     0.45223   0.28824   0.24677   0.00000  Uiso   1.00
C111   C     0.46380   0.25038   0.22615   0.00000  Uiso   1.00
C112   C     0.46092   0.16995   0.21876   0.00000  Uiso   1.00
N113   N     0.48455   0.16872   0.18434   0.00000  Uiso   1.00
N114   N     0.50138   0.13143   0.17190   0.00000  Uiso   1.00
C115   C     0.49542   0.09400   0.19355   0.00000  Uiso   1.00
N116   N     0.47135   0.09521   0.22754   0.00000  Uiso   1.00
N117   N     0.45433   0.13234   0.23977   0.00000  Uiso   1.00
C118   C     0.51805   0.05369   0.18344   0.00000  Uiso   1.00
C119   C     0.52981   0.02484   0.21568   0.00000  Uiso   1.00
C120   C     0.55559   0.98960   0.20780   0.00000  Uiso   1.00
C121   C     0.56890   0.98155   0.16733   0.00000  Uiso   1.00
C122   C     0.55533   0.00861   0.13454   0.00000  Uiso   1.00
C123   C     0.53064   0.04503   0.14264   0.00000  Uiso   1.00
H124   H     0.39795   0.18248   0.27121   0.00000  Uiso   1.00
H125   H     0.37709   0.24860   0.30602   0.00000  Uiso   1.00
H126   H     0.46827   0.31733   0.24055   0.00000  Uiso   1.00
H127   H     0.48850   0.25112   0.20445   0.00000  Uiso   1.00
H128   H     0.52082   0.03083   0.24743   0.00000  Uiso   1.00
H129   H     0.56604   0.96923   0.23351   0.00000  Uiso   1.00
H130   H     0.56572   0.00303   0.10315   0.00000  Uiso   1.00
H131   H     0.52205   0.06681   0.11725   0.00000  Uiso   1.00
C132   C     0.68255   0.27519   0.54675   0.00000  Uiso   1.00
C133   C     0.68913   0.27534   0.58967   0.00000  Uiso   1.00
C134   C     0.72627   0.26267   0.60558   0.00000  Uiso   1.00
C135   C     0.75781   0.25074   0.57889   0.00000  Uiso   1.00
C136   C     0.75239   0.25460   0.53592   0.00000  Uiso   1.00
C137   C     0.71496   0.26624   0.51999   0.00000  Uiso   1.00
C138   C     0.64166   0.28009   0.53033   0.00000  Uiso   1.00
N139   N     0.63327   0.26487   0.49246   0.00000  Uiso   1.00
N140   N     0.59624   0.26653   0.47856   0.00000  Uiso   1.00
C141   C     0.56591   0.28339   0.50192   0.00000  Uiso   1.00
N142   N     0.57432   0.29892   0.53972   0.00000  Uiso   1.00
N143   N     0.61137   0.29701   0.55376   0.00000  Uiso   1.00
C144   C     0.52494   0.28667   0.48541   0.00000  Uiso   1.00
C145   C     0.49543   0.31331   0.50421   0.00000  Uiso   1.00
C146   C     0.45885   0.32162   0.48493   0.00000  Uiso   1.00
C147   C     0.45085   0.30275   0.44707   0.00000  Uiso   1.00
C148   C     0.47920   0.27410   0.42957   0.00000  Uiso   1.00
C149   C     0.51579   0.26591   0.44863   0.00000  Uiso   1.00
H150   H     0.66503   0.28256   0.61116   0.00000  Uiso   1.00
H151   H     0.72980   0.25989   0.63889   0.00000  Uiso   1.00
H152   H     0.77618   0.24523   0.51473   0.00000  Uiso   1.00
H153   H     0.71102   0.26640   0.48675   0.00000  Uiso   1.00
H154   H     0.50146   0.32993   0.53241   0.00000  Uiso   1.00
H155   H     0.43803   0.34530   0.49794   0.00000  Uiso   1.00
H156   H     0.47415   0.26061   0.39951   0.00000  Uiso   1.00
H157   H     0.53762   0.24501   0.43337   0.00000  Uiso   1.00
C158   C     0.77796   0.06240   0.80426   0.00000  Uiso   1.00
C159   C     0.78447   0.03202   0.77299   0.00000  Uiso   1.00
C160   C     0.80581   0.04267   0.73722   0.00000  Uiso   1.00
C161   C     0.82018   0.08411   0.73157   0.00000  Uiso   1.00
C162   C     0.81222   0.11534   0.76162   0.00000  Uiso   1.00
C163   C     0.79168   0.10435   0.79815   0.00000  Uiso   1.00
C164   C     0.75817   0.04908   0.84332   0.00000  Uiso   1.00
N165   N     0.76607   0.06757   0.87997   0.00000  Uiso   1.00
N166   N     0.74973   0.05315   0.91533   0.00000  Uiso   1.00
C167   C     0.72461   0.01997   0.91520   0.00000  Uiso   1.00
N168   N     0.71660   1.00195   0.87847   0.00000  Uiso   1.00
N169   N     0.73314   0.01601   0.84338   0.00000  Uiso   1.00
C170   C     0.70665   1.00231   0.95377   0.00000  Uiso   1.00
C171   C     0.67309   0.97755   0.95073   0.00000  Uiso   1.00
C172   C     0.65783   0.95627   0.98535   0.00000  Uiso   1.00
C173   C     0.67551   0.95906   0.02441   0.00000  Uiso   1.00
C174   C     0.70843   0.98502   0.02804   0.00000  Uiso   1.00
C175   C     0.72370   0.00688   0.99295   0.00000  Uiso   1.00
H176   H     0.77461  -0.00067   0.77696   0.00000  Uiso   1.00
H177   H     0.81222   0.01816   0.71445   0.00000  Uiso   1.00
H178   H     0.82382   0.14732   0.75792   0.00000  Uiso   1.00
H179   H     0.78707   0.12828   0.82182   0.00000  Uiso   1.00
H180   H     0.65882   0.97385   0.92121   0.00000  Uiso   1.00
H181   H     0.63252   0.93664   0.98092   0.00000  Uiso   1.00
H182   H     0.72273  -0.01220   0.05763   0.00000  Uiso   1.00
H183   H     0.74953   0.02605   0.99618   0.00000  Uiso   1.00
C184   C     0.80583   0.01843   0.46938   0.00000  Uiso   1.00
C185   C     0.83911   0.00199   0.49132   0.00000  Uiso   1.00
C186   C     0.85033   0.02127   0.52807   0.00000  Uiso   1.00
C187   C     0.82815   0.05699   0.54347   0.00000  Uiso   1.00
C188   C     0.79331   0.07103   0.52305   0.00000  Uiso   1.00
C189   C     0.78255   0.05237   0.48635   0.00000  Uiso   1.00
C190   C     0.79587   0.00256   0.42804   0.00000  Uiso   1.00
N191   N     0.77065   0.02662   0.40362   0.00000  Uiso   1.00
N192   N     0.76131   0.01354   0.36628   0.00000  Uiso   1.00
C193   C     0.77674   0.97580   0.35144   0.00000  Uiso   1.00
N194   N     0.80213   0.95148   0.37576   0.00000  Uiso   1.00
N195   N     0.81169   0.96475   0.41330   0.00000  Uiso   1.00
C196   C     0.76419   0.96161   0.31024   0.00000  Uiso   1.00
C197   C     0.77163   0.91912   0.29675   0.00000  Uiso   1.00
C198   C     0.75444   0.90540   0.26013   0.00000  Uiso   1.00
C199   C     0.72938   0.93389   0.23698   0.00000  Uiso   1.00
C200   C     0.72419   0.97691   0.24913   0.00000  Uiso   1.00
C201   C     0.74158  -0.00937   0.28504   0.00000  Uiso   1.00
H202   H     0.85742   0.97565   0.47913   0.00000  Uiso   1.00
H203   H     0.87728   1.00956   0.54322   0.00000  Uiso   1.00
H204   H     0.77509   0.09788   0.53450   0.00000  Uiso   1.00
H205   H     0.75643   0.06561   0.47069   0.00000  Uiso   1.00
H206   H     0.78918   0.89604   0.31526   0.00000  Uiso   1.00
H207   H     0.75891   0.87207   0.25120   0.00000  Uiso   1.00
H208   H     0.70534  -0.00026   0.23167   0.00000  Uiso   1.00
H209   H     0.73588   0.02382   0.29387   0.00000  Uiso   1.00
C210   C     0.31768   0.47422   0.53662   0.00000  Uiso   1.00
C211   C     0.28752   0.47651   0.50695   0.00000  Uiso   1.00
C212   C     0.29151   0.45292   0.47073   0.00000  Uiso   1.00
C213   C     0.32634   0.42829   0.46298   0.00000  Uiso   1.00
C214   C     0.35769   0.42843   0.49106   0.00000  Uiso   1.00
C215   C     0.35309   0.45060   0.52816   0.00000  Uiso   1.00
C216   C     0.31033   0.49318   0.57749   0.00000  Uiso   1.00
N217   N     0.32216   0.47158   0.61268   0.00000  Uiso   1.00
N218   N     0.31155   0.48634   0.64983   0.00000  Uiso   1.00
C219   C     0.28896   0.52343   0.65313   0.00000  Uiso   1.00
N220   N     0.27785   0.54534   0.61788   0.00000  Uiso   1.00
N221   N     0.28809   0.53040   0.58081   0.00000  Uiso   1.00
C222   C     0.27430   0.53858   0.69382   0.00000  Uiso   1.00
C223   C     0.25917   0.58119   0.69722   0.00000  Uiso   1.00
C224   C     0.24079   0.59474   0.73370   0.00000  Uiso   1.00
C225   C     0.23665   0.56598   0.76766   0.00000  Uiso   1.00
C226   C     0.25324   0.52378   0.76522   0.00000  Uiso   1.00
C227   C     0.27219   0.51024   0.72854   0.00000  Uiso   1.00
H228   H     0.25991   0.49447   0.51289   0.00000  Uiso   1.00
H229   H     0.26698   0.45272   0.44944   0.00000  Uiso   1.00
H230   H     0.38465   0.40911   0.48557   0.00000  Uiso   1.00
H231   H     0.37674   0.44853   0.55059   0.00000  Uiso   1.00
H232   H     0.26043   0.60390   0.67123   0.00000  Uiso   1.00
H233   H     0.22830   0.62748   0.73464   0.00000  Uiso   1.00
H234   H     0.25015   0.50086   0.79086   0.00000  Uiso   1.00
H235   H     0.28341   0.47709   0.72667   0.00000  Uiso   1.00
C236   C     0.20175   0.49900   0.03803   0.00000  Uiso   1.00
C237   C     0.17186   0.53159   0.03356   0.00000  Uiso   1.00
C238   C     0.16067   0.54709   0.99416   0.00000  Uiso   1.00
C239   C     0.18007   0.53138   0.95850   0.00000  Uiso   1.00
C240   C     0.20964   0.49836   0.96279   0.00000  Uiso   1.00
C241   C     0.21997   0.48183   0.00226   0.00000  Uiso   1.00
C242   C     0.21462   0.48414   0.07989   0.00000  Uiso   1.00
N243   N     0.22609   0.44219   0.08767   0.00000  Uiso   1.00
N244   N     0.23827   0.42921   0.12530   0.00000  Uiso   1.00
C245   C     0.23988   0.45774   0.15652   0.00000  Uiso   1.00
N246   N     0.22853   0.49970   0.14865   0.00000  Uiso   1.00
N247   N     0.21589   0.51257   0.11119   0.00000  Uiso   1.00
C248   C     0.25550   0.44384   0.19765   0.00000  Uiso   1.00
C249   C     0.27570   0.47286   0.22170   0.00000  Uiso   1.00
C250   C     0.29385   0.45884   0.25866   0.00000  Uiso   1.00
C251   C     0.29121   0.41584   0.27288   0.00000  Uiso   1.00
C252   C     0.26912   0.38740   0.25013   0.00000  Uiso   1.00
C253   C     0.25191   0.40110   0.21252   0.00000  Uiso   1.00
H254   H     0.15720   0.54525   0.06058   0.00000  Uiso   1.00
H255   H     0.13773   0.57251   0.99168   0.00000  Uiso   1.00
H256   H     0.22499   0.48562   0.93574   0.00000  Uiso   1.00
H257   H     0.24321   0.45679   0.00491   0.00000  Uiso   1.00
H258   H     0.27912   0.50591   0.21095   0.00000  Uiso   1.00
H259   H     0.31082   0.48130   0.27564   0.00000  Uiso   1.00
H260   H     0.26707   0.35394   0.26025   0.00000  Uiso   1.00
H261   H     0.23640   0.37808   0.19471   0.00000  Uiso   1.00
C262   C     0.16315   0.24798   0.44341   0.00000  Uiso   1.00
C263   C     0.18601   0.22466   0.41404   0.00000  Uiso   1.00
C264   C     0.22442   0.23738   0.40310   0.00000  Uiso   1.00
C265   C     0.24055   0.27299   0.42205   0.00000  Uiso   1.00
C266   C     0.21832   0.29425   0.45313   0.00000  Uiso   1.00
C267   C     0.18019   0.28211   0.46343   0.00000  Uiso   1.00
C268   C     0.12133   0.23855   0.45313   0.00000  Uiso   1.00
N269   N     0.09595   0.27072   0.46623   0.00000  Uiso   1.00
N270   N     0.05894   0.26261   0.47779   0.00000  Uiso   1.00
C271   C     0.04580   0.22188   0.47696   0.00000  Uiso   1.00
N272   N     0.07100   0.18971   0.46332   0.00000  Uiso   1.00
N273   N     0.10801   0.19790   0.45136   0.00000  Uiso   1.00
C274   C     0.00619   0.21224   0.49442   0.00000  Uiso   1.00
C275   C    -0.00091   0.17062   0.51017   0.00000  Uiso   1.00
C276   C     0.96418   0.16257   0.53208   0.00000  Uiso   1.00
C277   C     0.93515   0.19566   0.53801   0.00000  Uiso   1.00
C278   C     0.94083   0.23669   0.51999   0.00000  Uiso   1.00
C279   C    -0.02366   0.24506   0.49873   0.00000  Uiso   1.00
H280   H     0.17368   0.19781   0.39846   0.00000  Uiso   1.00
H281   H     0.24085   0.22041   0.37903   0.00000  Uiso   1.00
H282   H     0.22981   0.32158   0.46866   0.00000  Uiso   1.00
H283   H     0.16375   0.29996   0.48691   0.00000  Uiso   1.00
H284   H     0.02142   0.14471   0.50749   0.00000  Uiso   1.00
H285   H     0.96033   0.13055   0.54537   0.00000  Uiso   1.00
H286   H     0.91879   0.26270   0.52401   0.00000  Uiso   1.00
H287   H    -0.01916   0.27742   0.48655   0.00000  Uiso   1.00
C288   C     1.01139   0.92584   0.69790   0.00000  Uiso   1.00
C289   C     1.00888   0.93984   0.65626   0.00000  Uiso   1.00
C290   C     0.99204   0.98072   0.64606   0.00000  Uiso   1.00
C291   C     0.97624   0.00726   0.67729   0.00000  Uiso   1.00
C292   C     0.97963  -0.00633   0.71892   0.00000  Uiso   1.00
C293   C     0.99795   0.95370   0.72920   0.00000  Uiso   1.00
C294   C     1.02563   0.88157   0.70910   0.00000  Uiso   1.00
N295   N     0.04741   0.87407   0.74375   0.00000  Uiso   1.00
N296   N     0.05790   0.83389   0.75584   0.00000  Uiso   1.00
C297   C     0.04647   0.79965   0.73415   0.00000  Uiso   1.00
N298   N     0.02451   0.80696   0.69956   0.00000  Uiso   1.00
N299   N     1.01450   0.84730   0.68709   0.00000  Uiso   1.00
C300   C     0.05629   0.75573   0.74996   0.00000  Uiso   1.00
C301   C     0.02623   0.72945   0.76525   0.00000  Uiso   1.00
C302   C     0.03570   0.69420   0.79192   0.00000  Uiso   1.00
C303   C     0.07532   0.68493   0.80303   0.00000  Uiso   1.00
C304   C     0.10547   0.70804   0.78336   0.00000  Uiso   1.00
C305   C     0.09598   0.74363   0.75752   0.00000  Uiso   1.00
H306   H     1.01936   0.91892   0.63171   0.00000  Uiso   1.00
H307   H     0.98925   0.99054   0.61374   0.00000  Uiso   1.00
H308   H     0.96725   0.01357   0.74340   0.00000  Uiso   1.00
H309   H     0.99969   0.94361   0.76153   0.00000  Uiso   1.00
H310   H    -0.00464   0.73851   0.75977   0.00000  Uiso   1.00
H311   H     0.01192   0.67674   0.80655   0.00000  Uiso   1.00
H312   H     0.13630   0.70117   0.79087   0.00000  Uiso   1.00
H313   H     0.11951   0.76351   0.74577   0.00000  Uiso   1.00
C314   C     0.01647   0.45346   0.80847   0.00000  Uiso   1.00
C315   C     0.04685   0.47127   0.78436   0.00000  Uiso   1.00
C316   C     0.06494   0.50835   0.79671   0.00000  Uiso   1.00
C317   C     0.05352   0.52849   0.83384   0.00000  Uiso   1.00
C318   C     0.02197   0.51183   0.85724   0.00000  Uiso   1.00
C319   C     1.00349   0.47463   0.84456   0.00000  Uiso   1.00
C320   C     1.00006   0.41206   0.79638   0.00000  Uiso   1.00
N321   N     0.96292   0.40110   0.80803   0.00000  Uiso   1.00
N322   N     0.94834   0.36415   0.79582   0.00000  Uiso   1.00
C323   C     0.97052   0.33647   0.77199   0.00000  Uiso   1.00
N324   N     1.00774   0.34731   0.76085   0.00000  Uiso   1.00
N325   N     0.02215   0.38430   0.77272   0.00000  Uiso   1.00
C326   C     0.95380   0.29699   0.75553   0.00000  Uiso   1.00
C327   C     0.97901   0.26370   0.73996   0.00000  Uiso   1.00
C328   C     0.96350   0.22926   0.71907   0.00000  Uiso   1.00
C329   C     0.92255   0.22780   0.71313   0.00000  Uiso   1.00
C330   C     0.89723   0.25983   0.73047   0.00000  Uiso   1.00
C331   C     0.91265   0.29390   0.75180   0.00000  Uiso   1.00
H332   H     0.05728   0.45603   0.75619   0.00000  Uiso   1.00
H333   H     0.08902   0.52033   0.77777   0.00000  Uiso   1.00
H334   H     0.01291   0.52619   0.88628   0.00000  Uiso   1.00
H335   H     0.98037   0.46130   0.86393   0.00000  Uiso   1.00
H336   H     1.01086   0.26506   0.74266   0.00000  Uiso   1.00
H337   H     0.98361   0.20524   0.70553   0.00000  Uiso   1.00
H338   H     0.86548   0.25925   0.72630   0.00000  Uiso   1.00
H339   H     0.89243   0.31897   0.76335   0.00000  Uiso   1.00
C340   C     0.78450   0.78644   0.04848   0.00000  Uiso   1.00
C341   C     0.76492   0.77627   0.08584   0.00000  Uiso   1.00
C342   C     0.72681   0.79328   0.09378   0.00000  Uiso   1.00
C343   C     0.70721   0.82002   0.06416   0.00000  Uiso   1.00
C344   C     0.72639   0.83004   0.02661   0.00000  Uiso   1.00
C345   C     0.76489   0.81353   0.01889   0.00000  Uiso   1.00
C346   C     0.82523   0.76910   0.04067   0.00000  Uiso   1.00
N347   N     0.84902   0.78876   0.01246   0.00000  Uiso   1.00
N348   N     0.88579   0.77332   0.00551   0.00000  Uiso   1.00
C349   C     0.90029   0.73752   0.02632   0.00000  Uiso   1.00
N350   N     0.87649   0.71775   0.05453   0.00000  Uiso   1.00
N351   N     0.83975   0.73341   0.06172   0.00000  Uiso   1.00
C352   C     0.94049   0.71960   0.01650   0.00000  Uiso   1.00
C353   C     0.95123   0.67585   0.02474   0.00000  Uiso   1.00
C354   C     0.98729   0.65803   0.00962   0.00000  Uiso   1.00
C355   C     0.01303   0.68387   0.98636   0.00000  Uiso   1.00
C356   C     1.00346   0.72817   0.98089   0.00000  Uiso   1.00
C357   C     0.96761   0.74580   0.99568   0.00000  Uiso   1.00
H358   H     0.77928   0.75569   0.10927   0.00000  Uiso   1.00
H359   H     0.71258   0.78530   0.12311   0.00000  Uiso   1.00
H360   H     0.71182   0.85099   0.00359   0.00000  Uiso   1.00
H361   H     0.77918   0.82173  -0.01031   0.00000  Uiso   1.00
H362   H     0.93088   0.65490   0.04077   0.00000  Uiso   1.00
H363   H     0.99390   0.62372   0.01396   0.00000  Uiso   1.00
H364   H     0.02296   0.74896   0.96341   0.00000  Uiso   1.00
H365   H     0.96052   0.77974   0.98940   0.00000  Uiso   1.00
C366   C     0.56428   0.71279   0.24390   0.00000  Uiso   1.00
C367   C     0.54042   0.72961   0.21175   0.00000  Uiso   1.00
C368   C     0.54601   0.77086   0.19544   0.00000  Uiso   1.00
C369   C     0.57667   0.79591   0.20988   0.00000  Uiso   1.00
C370   C     0.59852   0.78042   0.24445   0.00000  Uiso   1.00
C371   C     0.59210   0.73912   0.26160   0.00000  Uiso   1.00
C372   C     0.56010   0.66750   0.25735   0.00000  Uiso   1.00
N373   N     0.55939   0.65593   0.29816   0.00000  Uiso   1.00
N374   N     0.55007   0.61611   0.31002   0.00000  Uiso   1.00
C375   C     0.54147   0.58618   0.28162   0.00000  Uiso   1.00
N376   N     0.54382   0.59740   0.24078   0.00000  Uiso   1.00
N377   N     0.55283   0.63726   0.22892   0.00000  Uiso   1.00
C378   C     0.52411   0.54494   0.29485   0.00000  Uiso   1.00
C379   C     0.51830   0.51209   0.26634   0.00000  Uiso   1.00
C380   C     0.49590   0.47642   0.27758   0.00000  Uiso   1.00
C381   C     0.47844   0.47369   0.31717   0.00000  Uiso   1.00
C382   C     0.48591   0.50539   0.34610   0.00000  Uiso   1.00
C383   C     0.50873   0.54036   0.33522   0.00000  Uiso   1.00
H384   H     0.51814   0.71023   0.19824   0.00000  Uiso   1.00
H385   H     0.52818   0.78150   0.16912   0.00000  Uiso   1.00
H386   H     0.62217   0.79887   0.25647   0.00000  Uiso   1.00
H387   H     0.61045   0.72676   0.28688   0.00000  Uiso   1.00
H388   H     0.52976   0.51478   0.23492   0.00000  Uiso   1.00
H389   H     0.49051   0.45234   0.25480   0.00000  Uiso   1.00
H390   H     0.47283   0.50403   0.37691   0.00000  Uiso   1.00
H391   H     0.51228   0.56509   0.35786   0.00000  Uiso   1.00
loop_
_geom_bond_atom_site_label_1
_geom_bond_atom_site_label_2
_geom_bond_distance
_geom_bond_site_symmetry_2
_ccdc_geom_bond_type
O0     C6      1.306   .     A
O0     Yb3     2.172   .     S
Yb1    Yb3     2.923   .     S
Yb1    O4      2.155   .     S
Yb1    O9      2.177   .     S
Yb1    O10     2.079   .     S
Yb1    O11     2.150   .     S
Yb1    O16     2.161   .     S
Yb1    O17     2.098   .     S
Yb1    O19     2.124   .     S
C2     O16     1.285   .     A
C2     O17     1.272   .     A
C2     C225    1.475   .     S
Yb3    O7      2.103   .     S
Yb3    O10     2.124   .     S
Yb3    O12     2.150   .     S
Yb3    O13     2.258   .     S
Yb3    O18     2.192   .     S
Yb3    O19     2.139   .     S
O4     C6      1.302   .     A
C5     O18     1.225   .     D
C5     O19     1.378   .     S
C5     C303    1.473   .     S
C6     C95     1.464   .     S
O7     C8      1.274   .     A
C8     O12     1.283   .     A
C8     C355    1.474   .     S
O9     C14     1.229   .     D
O10    C14     1.385   .     S
O11    C15     1.305   .     A
O13    C15     1.326   .     A
C14    C239    1.477   .     S
C15    C317    1.483   .     S
O20    C26     1.316   .     A
O20    Yb23    2.212   .     S
Yb21   Yb23    2.933   .     S
Yb21   O24     2.199   .     S
Yb21   O29     2.201   .     S
Yb21   O30     2.167   .     S
Yb21   O31     2.126   .     S
Yb21   O36     2.116   .     S
Yb21   O37     2.118   .     S
Yb21   O39     2.115   .     S
C22    O36     1.280   .     A
C22    O37     1.280   .     A
C22    C83     1.471   .     S
Yb23   O27     2.130   .     S
Yb23   O30     2.130   .     S
Yb23   O32     2.157   .     S
Yb23   O33     2.197   .     S
Yb23   O38     2.160   .     S
Yb23   O39     2.097   .     S
O24    C26     1.319   .     A
C25    O38     1.226   .     D
C25    O39     1.388   .     S
C25    C121    1.467   .     S
C26    C173    1.484   .     S
O27    C28     1.280   .     A
C28    O32     1.280   .     A
C28    C199    1.475   .     S
O29    C34     1.222   .     D
O30    C34     1.369   .     S
O31    C35     1.298   .     A
O33    C35     1.309   .     A
C34    C343    1.467   .     S
C35    C369    1.484   .     S
O40    C46     1.310   .     A
O40    Yb43    2.181   .     S
Yb41   Yb43    2.840   .     S
Yb41   O44     2.143   .     S
Yb41   O49     2.176   .     S
Yb41   O50     2.139   .     S
Yb41   O51     2.143   .     S
Yb41   O56     2.159   .     S
Yb41   O57     2.115   .     S
Yb41   O59     2.121   .     S
C42    O56     1.286   .     A
C42    O57     1.274   .     A
C42    C135    1.475   .     S
Yb43   O47     2.142   .     S
Yb43   O50     2.109   .     S
Yb43   O52     2.146   .     S
Yb43   O53     2.175   .     S
Yb43   O58     2.146   .     S
Yb43   O59     2.164   .     S
O44    C46     1.304   .     A
C45    O58     1.228   .     D
C45    O59     1.394   .     S
C45    C161    1.461   .     S
C46    C329    1.473   .     S
O47    C48     1.282   .     A
C48    O52     1.279   .     A
C48    C291    1.467   .     S
O49    C54     1.231   .     D
O50    C54     1.389   .     S
O51    C55     1.301   .     A
O53    C55     1.304   .     A
C54    C277    1.476   .     S
C55    C187    1.480   .     S
O60    C66     1.312   .     A
O60    Yb63    2.195   .     S
Yb61   Yb63    2.847   .     S
Yb61   O64     2.137   .     S
Yb61   O69     2.151   .     S
Yb61   O70     2.152   .     S
Yb61   O71     2.154   .     S
Yb61   O76     2.164   .     S
Yb61   O77     2.099   .     S
Yb61   O79     2.087   .     S
C62    O76     1.287   .     A
C62    O77     1.271   .     A
C62    C381    1.472   .     S
Yb63   O67     2.135   .     S
Yb63   O70     2.145   .     S
Yb63   O72     2.178   .     S
Yb63   O73     2.176   .     S
Yb63   O78     2.170   .     S
Yb63   O79     2.152   .     S
O64    C66     1.301   .     A
C65    O78     1.226   .     D
C65    O79     1.384   .     S
C65    C213    1.461   .     S
C66    C147    1.466   .     S
O67    C68     1.279   .     A
C68    O72     1.282   .     A
C68    C265    1.483   .     S
O69    C74     1.231   .     D
O70    C74     1.399   .     S
O71    C75     1.301   .     A
O73    C75     1.304   .     A
C74    C109    1.476   .     S
C75    C251    1.476   .     S
C80    C85     1.405   .     A
C80    C86     1.474   .     S
C80    C81     1.404   1_556 A
C81    C82     1.395   .     A
C81    H98     1.083   .     S
C81    C80     1.404   1_554 A
C82    C83     1.404   .     A
C82    H99     1.083   .     S
C83    C84     1.403   1_554 A
C84    C85     1.397   .     A
C84    H100    1.083   .     S
C84    C83     1.403   1_556 A
C85    H101    1.083   .     S
C86    N87     1.357   .     A
C86    N91     1.359   .     A
N87    N88     1.330   .     A
N88    C89     1.359   .     A
C89    N90     1.358   .     A
C89    C92     1.474   .     S
N90    N91     1.331   .     A
C92    C93     1.408   .     A
C92    C97     1.403   .     A
C93    C94     1.402   .     A
C93    H102    1.083   .     S
C94    C95     1.401   .     A
C94    H103    1.083   .     S
C95    C96     1.401   .     A
C96    C97     1.392   .     A
C96    H104    1.084   .     S
C97    H105    1.083   .     S
C106   C107    1.405   .     A
C106   C111    1.407   .     A
C106   C112    1.482   .     S
C107   C108    1.395   .     A
C107   H124    1.083   .     S
C108   C109    1.402   .     A
C108   H125    1.083   .     S
C109   C110    1.405   .     A
C110   C111    1.402   .     A
C110   H126    1.083   .     S
C111   H127    1.083   .     S
C112   N113    1.360   .     A
C112   N117    1.358   .     A
N113   N114    1.335   .     A
N114   C115    1.359   .     A
C115   N116    1.357   .     A
C115   C118    1.478   .     S
N116   N117    1.331   .     A
C118   C119    1.404   .     A
C118   C123    1.407   .     A
C119   H128    1.083   .     S
C119   C120    1.394   1_545 A
C120   C121    1.400   .     A
C120   H129    1.083   .     S
C120   C119    1.394   1_565 A
C121   C122    1.403   1_565 A
C122   C123    1.403   .     A
C122   H130    1.083   .     S
C122   C121    1.403   1_545 A
C123   H131    1.083   .     S
C132   C133    1.406   .     A
C132   C137    1.408   .     A
C132   C138    1.486   .     S
C133   C134    1.399   .     A
C133   H150    1.083   .     S
C134   C135    1.405   .     A
C134   H151    1.083   .     S
C135   C136    1.402   .     A
C136   C137    1.401   .     A
C136   H152    1.084   .     S
C137   H153    1.082   .     S
C138   N139    1.358   .     A
C138   N143    1.360   .     A
N139   N140    1.333   .     A
N140   C141    1.359   .     A
C141   N142    1.360   .     A
C141   C144    1.488   .     S
N142   N143    1.335   .     A
C144   C145    1.408   .     A
C144   C149    1.408   .     A
C145   C146    1.402   .     A
C145   H154    1.082   .     S
C146   C147    1.402   .     A
C146   H155    1.083   .     S
C147   C148    1.401   .     A
C148   C149    1.398   .     A
C148   H156    1.084   .     S
C149   H157    1.083   .     S
C158   C159    1.406   .     A
C158   C163    1.406   .     A
C158   C164    1.477   .     S
C159   C160    1.393   .     A
C159   H176    1.083   .     S
C160   C161    1.398   .     A
C160   H177    1.083   .     S
C161   C162    1.402   .     A
C162   C163    1.402   .     A
C162   H178    1.084   .     S
C163   H179    1.083   .     S
C164   N165    1.361   .     A
C164   N169    1.355   .     A
N165   N166    1.336   .     A
N166   C167    1.360   .     A
C167   N168    1.357   1_545 A
C167   C170    1.480   1_545 S
N168   C167    1.357   1_565 A
N168   N169    1.328   1_565 A
N169   N168    1.328   1_545 A
C170   C171    1.401   .     A
C170   C167    1.480   1_565 S
C170   C175    1.409   1_565 A
C171   C172    1.387   .     A
C171   H180    1.084   .     S
C172   H181    1.083   .     S
C172   C173    1.407   1_556 A
C173   C174    1.407   .     A
C173   C172    1.407   1_554 A
C174   C175    1.408   1_564 A
C174   H182    1.082   1_565 S
C175   H183    1.083   .     S
C175   C170    1.409   1_545 A
C175   C174    1.408   1_546 A
H182   C174    1.082   1_545 S
C184   C185    1.406   .     A
C184   C189    1.405   .     A
C184   C190    1.481   .     S
C185   C186    1.404   .     A
C185   H202    1.082   1_545 S
C186   C187    1.408   .     A
C186   H203    1.083   1_545 S
C187   C188    1.404   .     A
C188   C189    1.390   .     A
C188   H204    1.083   .     S
C189   H205    1.083   .     S
C190   N191    1.355   .     A
C190   N195    1.361   1_545 A
N191   N192    1.327   .     A
N192   C193    1.356   1_545 A
C193   N194    1.361   .     A
C193   C196    1.483   .     S
C193   N192    1.356   1_565 A
N194   N195    1.337   .     A
N195   C190    1.361   1_565 A
C196   C197    1.408   .     A
C196   C201    1.405   1_565 A
C197   C198    1.406   .     A
C197   H206    1.082   .     S
C198   C199    1.405   .     A
C198   H207    1.083   .     S
C199   C200    1.401   .     A
C200   C201    1.390   1_565 A
C200   H208    1.084   1_565 S
C201   H209    1.082   .     S
C201   C196    1.405   1_545 A
C201   C200    1.390   1_545 A
H202   C185    1.082   1_565 S
H203   C186    1.083   1_565 S
H208   C200    1.084   1_545 S
C210   C211    1.405   .     A
C210   C215    1.403   .     A
C210   C216    1.471   .     S
C211   C212    1.396   .     A
C211   H228    1.083   .     S
C212   C213    1.399   .     A
C212   H229    1.083   .     S
C213   C214    1.403   .     A
C214   C215    1.398   .     A
C214   H230    1.084   .     S
C215   H231    1.083   .     S
C216   N217    1.359   .     A
C216   N221    1.355   .     A
N217   N218    1.333   .     A
N218   C219    1.358   .     A
C219   N220    1.359   .     A
C219   C222    1.478   .     S
N220   N221    1.330   .     A
C222   C223    1.402   .     A
C222   C227    1.408   .     A
C223   C224    1.390   .     A
C223   H232    1.083   .     S
C224   C225    1.404   .     A
C224   H233    1.083   .     S
C225   C226    1.404   .     A
C226   C227    1.404   .     A
C226   H234    1.083   .     S
C227   H235    1.082   .     S
C236   C237    1.404   .     A
C236   C241    1.407   .     A
C236   C242    1.480   .     S
C237   H254    1.084   .     S
C237   C238    1.398   1_554 A
C238   C239    1.404   .     A
C238   H255    1.084   .     S
C238   C237    1.398   1_556 A
C239   C240    1.405   .     A
C240   H256    1.084   .     S
C240   C241    1.403   1_556 A
C241   H257    1.083   .     S
C241   C240    1.403   1_554 A
C242   N243    1.358   .     A
C242   N247    1.359   .     A
N243   N244    1.334   .     A
N244   C245    1.359   .     A
C245   N246    1.358   .     A
C245   C248    1.482   .     S
N246   N247    1.333   .     A
C248   C249    1.405   .     A
C248   C253    1.406   .     A
C249   C250    1.399   .     A
C249   H258    1.083   .     S
C250   C251    1.404   .     A
C250   H259    1.083   .     S
C251   C252    1.404   .     A
C252   C253    1.401   .     A
C252   H260    1.083   .     S
C253   H261    1.083   .     S
C262   C263    1.409   .     A
C262   C267    1.400   .     A
C262   C268    1.482   .     S
C263   C264    1.409   .     A
C263   H280    1.083   .     S
C264   C265    1.407   .     A
C264   H281    1.083   .     S
C265   C266    1.406   .     A
C266   C267    1.390   .     A
C266   H282    1.083   .     S
C267   H283    1.083   .     S
C268   N269    1.359   .     A
C268   N273    1.357   .     A
N269   N270    1.332   .     A
N270   C271    1.356   .     A
C271   N272    1.361   .     A
C271   C274    1.484   .     S
N272   N273    1.336   .     A
C274   C275    1.403   .     A
C274   C279    1.410   .     A
C275   H284    1.082   .     S
C275   C276    1.395   1_455 A
C276   C277    1.403   .     A
C276   H285    1.083   .     S
C276   C275    1.395   1_655 A
C277   C278    1.404   .     A
C278   H286    1.083   .     S
C278   C279    1.404   1_655 A
C279   H287    1.083   .     S
C279   C278    1.404   1_455 A
C288   C289    1.404   .     A
C288   C293    1.403   .     A
C288   C294    1.472   .     S
C289   C290    1.400   .     A
C289   H306    1.083   .     S
C290   H307    1.083   .     S
C290   C291    1.403   1_565 A
C291   C292    1.402   .     A
C291   C290    1.403   1_545 A
C292   H308    1.083   .     S
C292   C293    1.395   1_545 A
C293   H309    1.083   .     S
C293   C292    1.395   1_565 A
C294   N299    1.360   .     A
C294   N295    1.356   1_655 A
N295   N296    1.330   .     A
N295   C294    1.356   1_455 A
N296   C297    1.357   .     A
C297   N298    1.357   .     A
C297   C300    1.467   .     S
N298   N299    1.334   1_455 A
N299   N298    1.334   1_655 A
C300   C301    1.404   .     A
C300   C305    1.400   .     A
C301   C302    1.402   .     A
C301   H310    1.084   .     S
C302   C303    1.406   .     A
C302   H311    1.083   .     S
C303   C304    1.405   .     A
C304   C305    1.394   .     A
C304   H312    1.084   .     S
C305   H313    1.084   .     S
C314   C315    1.403   .     A
C314   C319    1.407   1_455 A
C314   C320    1.481   1_455 S
C315   C316    1.392   .     A
C315   H332    1.083   .     S
C316   C317    1.406   .     A
C316   H333    1.083   .     S
C317   C318    1.406   .     A
C318   H334    1.083   .     S
C318   C319    1.405   1_455 A
C319   H335    1.083   .     S
C319   C314    1.407   1_655 A
C319   C318    1.405   1_655 A
C320   N321    1.359   .     A
C320   C314    1.481   1_655 S
C320   N325    1.358   1_655 A
N321   N322    1.335   .     A
N322   C323    1.361   .     A
C323   N324    1.356   .     A
C323   C326    1.481   .     S
N324   N325    1.330   1_655 A
N325   C320    1.358   1_455 A
N325   N324    1.330   1_455 A
C326   C327    1.408   .     A
C326   C331    1.404   .     A
C327   C328    1.399   .     A
C327   H336    1.083   .     S
C328   C329    1.401   .     A
C328   H337    1.083   .     S
C329   C330    1.405   .     A
C330   C331    1.396   .     A
C330   H338    1.083   .     S
C331   H339    1.083   .     S
C340   C341    1.403   .     A
C340   C345    1.408   .     A
C340   C346    1.477   .     S
C341   C342    1.394   .     A
C341   H358    1.083   .     S
C342   C343    1.403   .     A
C342   H359    1.084   .     S
C343   C344    1.401   .     A
C344   C345    1.399   .     A
C344   H360    1.083   .     S
C345   H361    1.082   .     S
C346   N347    1.356   .     A
C346   N351    1.360   .     A
N347   N348    1.330   .     A
N348   C349    1.359   .     A
C349   N350    1.358   .     A
C349   C352    1.479   .     S
N350   N351    1.333   .     A
C352   C353    1.408   .     A
C352   C357    1.403   1_554 A
C353   C354    1.403   .     A
C353   H362    1.083   .     S
C354   H363    1.083   .     S
C354   C355    1.404   1_654 A
C355   C354    1.404   1_456 A
C355   C356    1.404   1_455 A
C356   C357    1.391   .     A
C356   C355    1.404   1_655 A
C356   H364    1.083   1_655 S
C357   H365    1.083   .     S
C357   C352    1.403   1_556 A
H364   C356    1.083   1_455 S
C366   C367    1.398   .     A
C366   C371    1.405   .     A
C366   C372    1.470   .     S
C367   C368    1.389   .     A
C367   H384    1.084   .     S
C368   C369    1.410   .     A
C368   H385    1.084   .     S
C369   C370    1.408   .     A
C370   C371    1.405   .     A
C370   H386    1.083   .     S
C371   H387    1.083   .     S
C372   N373    1.356   .     A
C372   N377    1.359   .     A
N373   N374    1.331   .     A
N374   C375    1.362   .     A
C375   N376    1.357   .     A
C375   C378    1.478   .     S
N376   N377    1.329   .     A
C378   C379    1.410   .     A
C378   C383    1.402   .     A
C379   C380    1.403   .     A
C379   H388    1.083   .     S
C380   C381    1.402   .     A
C380   H389    1.083   .     S
C381   C382    1.404   .     A
C382   C383    1.390   .     A
C382   H390    1.083   .     S
C383   H391    1.083   .     S
