data_lcy+N173+E1
_audit_creation_date              2025-01-21
_audit_creation_method            'Materials Studio'
_symmetry_space_group_name_H-M    'P1'
_symmetry_Int_Tables_number       1
_symmetry_cell_setting            triclinic
loop_
_symmetry_equiv_pos_as_xyz
  x,y,z
_cell_length_a                    32.8418
_cell_length_b                    33.2958
_cell_length_c                    33.4164
_cell_angle_alpha                 93.8842
_cell_angle_beta                  87.0812
_cell_angle_gamma                 96.3447
loop_
_atom_site_label
_atom_site_type_symbol
_atom_site_fract_x
_atom_site_fract_y
_atom_site_fract_z
_atom_site_U_iso_or_equiv
_atom_site_adp_type
_atom_site_occupancy
Gd0    Gd    0.12769   0.63608   0.83451   0.00000  Uiso   1.00
Gd1    Gd    0.13242   0.59331   0.88538   0.00000  Uiso   1.00
O2     O     0.08147   0.55283   0.85913   0.00000  Uiso   1.00
O3     O     0.08038   0.58982   0.80716   0.00000  Uiso   1.00
O4     O     0.17581   0.60554   0.79995   0.00000  Uiso   1.00
O5     O     0.17665   0.56082   0.84543   0.00000  Uiso   1.00
O6     O     0.08294   0.68250   0.83975   0.00000  Uiso   1.00
O7     O     0.11999   0.67839   0.78641   0.00000  Uiso   1.00
O8     O     0.17678   0.68038   0.86045   0.00000  Uiso   1.00
C9     C     0.09215   0.69617   0.80547   0.00000  Uiso   1.00
O10    O     0.18387   0.63833   0.90739   0.00000  Uiso   1.00
O11    O     0.07971   0.66355   0.87541   0.00000  Uiso   1.00
C12    C     0.18872   0.57399   0.81152   0.00000  Uiso   1.00
O13    O     0.08716   0.62442   0.92465   0.00000  Uiso   1.00
O14    O     0.13892   0.55145   0.93368   0.00000  Uiso   1.00
O15    O     0.17921   0.60539   0.93285   0.00000  Uiso   1.00
C16    C     0.06805   0.55793   0.82518   0.00000  Uiso   1.00
C17    C     0.16836   0.57284   0.95019   0.00000  Uiso   1.00
C18    C     0.06982   0.65247   0.91087   0.00000  Uiso   1.00
C19    C     0.19539   0.67128   0.89046   0.00000  Uiso   1.00
Gd20   Gd    0.64264   0.84354   0.11836   0.00000  Uiso   1.00
Gd21   Gd    0.59728   0.89094   0.13206   0.00000  Uiso   1.00
O22    O     0.55882   0.85703   0.08568   0.00000  Uiso   1.00
O23    O     0.60205   0.81149   0.07190   0.00000  Uiso   1.00
O24    O     0.60773   0.80764   0.16486   0.00000  Uiso   1.00
O25    O     0.56380   0.85259   0.17854   0.00000  Uiso   1.00
O26    O     0.69665   0.84855   0.07375   0.00000  Uiso   1.00
O27    O     0.68628   0.79672   0.10727   0.00000  Uiso   1.00
O28    O     0.68221   0.87471   0.16611   0.00000  Uiso   1.00
C29    C     0.70892   0.81501   0.08117   0.00000  Uiso   1.00
O30    O     0.63923   0.92092   0.17887   0.00000  Uiso   1.00
O31    O     0.67351   0.88310   0.07103   0.00000  Uiso   1.00
C32    C     0.57615   0.81856   0.18410   0.00000  Uiso   1.00
O33    O     0.62986   0.92839   0.08473   0.00000  Uiso   1.00
O34    O     0.55271   0.93695   0.14134   0.00000  Uiso   1.00
O35    O     0.60468   0.94516   0.17669   0.00000  Uiso   1.00
C36    C     0.56819   0.82499   0.06648   0.00000  Uiso   1.00
C37    C     0.57216   0.95923   0.16751   0.00000  Uiso   1.00
C38    C     0.65974   0.91614   0.06339   0.00000  Uiso   1.00
C39    C     0.67177   0.90572   0.18685   0.00000  Uiso   1.00
Gd40   Gd    0.88558   0.09382   0.63266   0.00000  Uiso   1.00
Gd41   Gd    0.84282   0.14318   0.62925   0.00000  Uiso   1.00
O42    O     0.87568   0.17678   0.67947   0.00000  Uiso   1.00
O43    O     0.92023   0.13217   0.68002   0.00000  Uiso   1.00
O44    O     0.92642   0.12538   0.58798   0.00000  Uiso   1.00
O45    O     0.88835   0.17551   0.58647   0.00000  Uiso   1.00
O46    O     0.87700   0.04091   0.67232   0.00000  Uiso   1.00
O47    O     0.92928   0.04719   0.63320   0.00000  Uiso   1.00
O48    O     0.85272   0.05690   0.58351   0.00000  Uiso   1.00
C49    C     0.90983   0.02650   0.65955   0.00000  Uiso   1.00
O50    O     0.81367   0.10570   0.57740   0.00000  Uiso   1.00
O51    O     0.84240   0.06561   0.67949   0.00000  Uiso   1.00
C52    C     0.92177   0.16027   0.57740   0.00000  Uiso   1.00
O53    O     0.79998   0.11194   0.67472   0.00000  Uiso   1.00
O54    O     0.80147   0.19208   0.62668   0.00000  Uiso   1.00
O55    O     0.79144   0.14089   0.58639   0.00000  Uiso   1.00
C56    C     0.90814   0.16602   0.69238   0.00000  Uiso   1.00
C57    C     0.77992   0.17492   0.59898   0.00000  Uiso   1.00
C58    C     0.80983   0.08133   0.69153   0.00000  Uiso   1.00
C59    C     0.82542   0.07146   0.56493   0.00000  Uiso   1.00
Gd60   Gd    0.35845   0.38777   0.35436   0.00000  Uiso   1.00
Gd61   Gd    0.39003   0.38578   0.40312   0.00000  Uiso   1.00
O62    O     0.34621   0.43534   0.40751   0.00000  Uiso   1.00
O63    O     0.34580   0.43354   0.40686   0.00000  Uiso   1.00
O64    O     0.30889   0.34355   0.37657   0.00000  Uiso   1.00
O65    O     0.34052   0.34291   0.43159   0.00000  Uiso   1.00
O66    O     0.36843   0.43389   0.30697   0.00000  Uiso   1.00
O67    O     0.31053   0.40141   0.31327   0.00000  Uiso   1.00
O68    O     0.38327   0.33911   0.31506   0.00000  Uiso   1.00
C69    C     0.33258   0.42751   0.29416   0.00000  Uiso   1.00
O70    O     0.41792   0.33338   0.36936   0.00000  Uiso   1.00
O71    O     0.40567   0.43320   0.32827   0.00000  Uiso   1.00
C72    C     0.30890   0.33214   0.41166   0.00000  Uiso   1.00
O73    O     0.44090   0.43111   0.38116   0.00000  Uiso   1.00
O74    O     0.42643   0.38322   0.45825   0.00000  Uiso   1.00
O75    O     0.43587   0.34231   0.40804   0.00000  Uiso   1.00
C76    C     0.31125   0.42799   0.42534   0.00000  Uiso   1.00
C77    C     0.44652   0.35495   0.44307   0.00000  Uiso   1.00
C78    C     0.43687   0.44623   0.34806   0.00000  Uiso   1.00
C79    C     0.40869   0.32099   0.33317   0.00000  Uiso   1.00
C80    C     0.46589   0.77909  -0.00160   0.00000  Uiso   1.00
C81    C     0.50067   0.79884   0.97889   0.00000  Uiso   1.00
C82    C     0.53621   0.81111   0.00009   0.00000  Uiso   1.00
C83    C     0.53745   0.80297   0.04063   0.00000  Uiso   1.00
C84    C     0.50371   0.78109   0.05920   0.00000  Uiso   1.00
C85    C     0.46835   0.76910   0.03829   0.00000  Uiso   1.00
C86    C     0.42601   0.77142   0.97890   0.00000  Uiso   1.00
C87    C     0.39015   0.78124   0.00031   0.00000  Uiso   1.00
C88    C     0.35189   0.77117  -0.01600   0.00000  Uiso   1.00
C89    C     0.34849   0.75083   0.94596   0.00000  Uiso   1.00
C90    C     0.38447   0.74283   0.92355   0.00000  Uiso   1.00
C91    C     0.42298   0.75310   0.93993   0.00000  Uiso   1.00
C92    C     0.30747   0.73455   0.93188   0.00000  Uiso   1.00
C93    C     0.29711   0.73663   0.89183   0.00000  Uiso   1.00
C94    C     0.25923   0.71827   0.87869   0.00000  Uiso   1.00
C95    C     0.23159   0.69705   0.90525   0.00000  Uiso   1.00
C96    C     0.24147   0.69618   0.94547   0.00000  Uiso   1.00
C97    C     0.27889   0.71478   0.95865   0.00000  Uiso   1.00
H98    H     0.49944   0.80691   0.94816   0.00000  Uiso   1.00
H99    H     0.56160   0.82900   0.98563   0.00000  Uiso   1.00
H100   H     0.50379   0.77549   0.09073   0.00000  Uiso   1.00
H101   H     0.44219   0.75346   0.05385   0.00000  Uiso   1.00
H102   H     0.39166   0.79619   0.03009   0.00000  Uiso   1.00
H103   H     0.32475   0.77842   0.00158   0.00000  Uiso   1.00
H104   H     0.38273   0.72692   0.89424   0.00000  Uiso   1.00
H105   H     0.45021   0.74522   0.92292   0.00000  Uiso   1.00
H106   H     0.31850   0.75187   0.87064   0.00000  Uiso   1.00
H107   H     0.25239   0.71899   0.84743   0.00000  Uiso   1.00
H108   H     0.22061   0.68019   0.96657   0.00000  Uiso   1.00
H109   H     0.28615   0.71225  -0.01045   0.00000  Uiso   1.00
C110   C     0.46134   0.21601   0.27922   0.00000  Uiso   1.00
C111   C     0.46669   0.22858   0.31974   0.00000  Uiso   1.00
C112   C     0.44984   0.26272   0.33677   0.00000  Uiso   1.00
C113   C     0.42722   0.28549   0.31383   0.00000  Uiso   1.00
C114   C     0.42214   0.27337   0.27312   0.00000  Uiso   1.00
C115   C     0.43910   0.23898   0.25596   0.00000  Uiso   1.00
C116   C     0.47867   0.17882   0.26192   0.00000  Uiso   1.00
C117   C     0.49621   0.17687   0.22265   0.00000  Uiso   1.00
C118   C     0.51329   0.14206   0.20713   0.00000  Uiso   1.00
C119   C     0.51364   0.10878   0.23073   0.00000  Uiso   1.00
C120   C     0.49613   0.11060   0.26983   0.00000  Uiso   1.00
C121   C     0.47859   0.14508   0.28515   0.00000  Uiso   1.00
C122   C     0.53054   0.07147   0.21410   0.00000  Uiso   1.00
C123   C     0.55809   0.05276   0.23569   0.00000  Uiso   1.00
C124   C     0.57240   1.01640   0.22048   0.00000  Uiso   1.00
C125   C     0.55861   0.99793   0.18394   0.00000  Uiso   1.00
C126   C     0.53139   0.01688   0.16232   0.00000  Uiso   1.00
C127   C     0.51783   0.05349   0.17703   0.00000  Uiso   1.00
H128   H     0.48418   0.21209   0.33842   0.00000  Uiso   1.00
H129   H     0.45424   0.27093   0.36823   0.00000  Uiso   1.00
H130   H     0.40493   0.29030   0.25463   0.00000  Uiso   1.00
H131   H     0.43417   0.22995   0.22472   0.00000  Uiso   1.00
H132   H     0.49729   0.20242   0.20412   0.00000  Uiso   1.00
H133   H     0.52671   0.14127   0.17686   0.00000  Uiso   1.00
H134   H     0.49524   0.08493   0.28821   0.00000  Uiso   1.00
H135   H     0.46443   0.14504   0.31510   0.00000  Uiso   1.00
H136   H     0.56858   0.06638   0.26419   0.00000  Uiso   1.00
H137   H     0.59355   1.00239   0.23753   0.00000  Uiso   1.00
H138   H     0.52074   0.00347   0.13378   0.00000  Uiso   1.00
H139   H     0.49658   0.06728   0.15990   0.00000  Uiso   1.00
C140   C     0.67706   0.22682   0.55651   0.00000  Uiso   1.00
C141   C     0.70863   0.25113   0.57635   0.00000  Uiso   1.00
C142   C     0.74187   0.23413   0.59016   0.00000  Uiso   1.00
C143   C     0.74506   0.19254   0.58350   0.00000  Uiso   1.00
C144   C     0.71425   0.16811   0.56309   0.00000  Uiso   1.00
C145   C     0.68037   0.18496   0.55013   0.00000  Uiso   1.00
C146   C     0.64135   0.24525   0.54220   0.00000  Uiso   1.00
C147   C     0.62152   0.22893   0.50749   0.00000  Uiso   1.00
C148   C     0.58921   0.24704   0.49322   0.00000  Uiso   1.00
C149   C     0.57617   0.28245   0.51274   0.00000  Uiso   1.00
C150   C     0.59542   0.29855   0.54775   0.00000  Uiso   1.00
C151   C     0.62733   0.28000   0.56246   0.00000  Uiso   1.00
C152   C     0.54344   0.30283   0.49575   0.00000  Uiso   1.00
C153   C     0.51416   0.32160   0.52068   0.00000  Uiso   1.00
C154   C     0.48288   0.33968   0.50396   0.00000  Uiso   1.00
C155   C     0.48014   0.33863   0.46214   0.00000  Uiso   1.00
C156   C     0.50988   0.32084   0.43741   0.00000  Uiso   1.00
C157   C     0.54130   0.30350   0.45394   0.00000  Uiso   1.00
H158   H     0.70808   0.28353   0.58086   0.00000  Uiso   1.00
H159   H     0.76538   0.25367   0.60572   0.00000  Uiso   1.00
H160   H     0.71585   0.13581   0.55799   0.00000  Uiso   1.00
H161   H     0.65656   0.16495   0.53567   0.00000  Uiso   1.00
H162   H     0.63145   0.20265   0.49056   0.00000  Uiso   1.00
H163   H     0.57457   0.23333   0.46659   0.00000  Uiso   1.00
H164   H     0.58651   0.32602   0.56335   0.00000  Uiso   1.00
H165   H     0.64108   0.29320   0.58969   0.00000  Uiso   1.00
H166   H     0.51487   0.32150   0.55301   0.00000  Uiso   1.00
H167   H     0.46024   0.35329   0.52358   0.00000  Uiso   1.00
H168   H     0.50898   0.32053   0.40503   0.00000  Uiso   1.00
H169   H     0.56407   0.29072   0.43382   0.00000  Uiso   1.00
C170   C     0.75099   0.03799   0.80075   0.00000  Uiso   1.00
C171   C     0.74751   0.07757   0.79010   0.00000  Uiso   1.00
C172   C     0.76446   0.09097   0.75333   0.00000  Uiso   1.00
C173   C     0.78574   0.06526   0.72676   0.00000  Uiso   1.00
C174   C     0.78855   0.02549   0.73711   0.00000  Uiso   1.00
C175   C     0.77118   1.01195   0.77350   0.00000  Uiso   1.00
C176   C     0.73490   0.02388   0.84049   0.00000  Uiso   1.00
C177   C     0.71528   0.98444   0.84336   0.00000  Uiso   1.00
C178   C     0.70329   0.96957   0.88074   0.00000  Uiso   1.00
C179   C     0.71062   0.99372   0.91633   0.00000  Uiso   1.00
C180   C     0.72873   0.03378   0.91359   0.00000  Uiso   1.00
C181   C     0.74088   0.04869   0.87601   0.00000  Uiso   1.00
C182   C     0.70069   0.97612   0.95587   0.00000  Uiso   1.00
C183   C     0.67962   0.99683   0.98711   0.00000  Uiso   1.00
C184   C     0.66743   0.97805   0.02283   0.00000  Uiso   1.00
C185   C     0.67682   0.93855   0.02826   0.00000  Uiso   1.00
C186   C     0.69959   0.91884   0.99771   0.00000  Uiso   1.00
C187   C     0.71121   0.93730   0.96198   0.00000  Uiso   1.00
H188   H     0.73203   0.09826   0.81039   0.00000  Uiso   1.00
H189   H     0.76254   0.12202   0.74651   0.00000  Uiso   1.00
H190   H     0.80509   1.00507   0.71744   0.00000  Uiso   1.00
H191   H     0.77483   0.98144   0.78092   0.00000  Uiso   1.00
H192   H     0.70943   0.96493   0.81656   0.00000  Uiso   1.00
H193   H     0.68845   0.93893   0.88187   0.00000  Uiso   1.00
H194   H     0.73482   0.05305   0.94052   0.00000  Uiso   1.00
H195   H     0.75629   0.07909   0.87482   0.00000  Uiso   1.00
H196   H     0.67114   0.02683   0.98325   0.00000  Uiso   1.00
H197   H     0.64978   0.99401   0.04576   0.00000  Uiso   1.00
H198   H     0.70695   0.88831   1.00063   0.00000  Uiso   1.00
H199   H     0.72790   0.92087   0.93865   0.00000  Uiso   1.00
C200   C     0.78531   0.01505   0.45162   0.00000  Uiso   1.00
C201   C     0.77185   0.05203   0.46659   0.00000  Uiso   1.00
C202   C     0.78348   0.06940   0.50410   0.00000  Uiso   1.00
C203   C     0.80890   0.05026   0.52769   0.00000  Uiso   1.00
C204   C     0.82119   1.01254   0.51342   0.00000  Uiso   1.00
C205   C     0.80937   0.99503   0.47585   0.00000  Uiso   1.00
C206   C     0.77495  -0.00174   0.41047   0.00000  Uiso   1.00
C207   C     0.76238   0.95683   0.40273   0.00000  Uiso   1.00
C208   C     0.75023   0.94186   0.36444   0.00000  Uiso   1.00
C209   C     0.75060   0.96797   0.33297   0.00000  Uiso   1.00
C210   C     0.76480   0.00906   0.34041   0.00000  Uiso   1.00
C211   C     0.77668   0.02402   0.37864   0.00000  Uiso   1.00
C212   C     0.73372   0.95314   0.29341   0.00000  Uiso   1.00
C213   C     0.70900   0.97688   0.27380   0.00000  Uiso   1.00
C214   C     0.69010   0.96197   0.23846   0.00000  Uiso   1.00
C215   C     0.69583   0.92316   0.22145   0.00000  Uiso   1.00
C216   C     0.72183   0.89996   0.24006   0.00000  Uiso   1.00
C217   C     0.74038   0.91467   0.27580   0.00000  Uiso   1.00
H218   H     0.75258   0.06780   0.44903   0.00000  Uiso   1.00
H219   H     0.77354   0.09852   0.51396   0.00000  Uiso   1.00
H220   H     0.84094   0.99709   0.53073   0.00000  Uiso   1.00
H221   H     0.82021   0.96652   0.46518   0.00000  Uiso   1.00
H222   H     0.76055   0.93625   0.42663   0.00000  Uiso   1.00
H223   H     0.73911   0.91010   0.35988   0.00000  Uiso   1.00
H224   H     0.76644   0.02979   0.31663   0.00000  Uiso   1.00
H225   H     0.78717   0.05590   0.38335   0.00000  Uiso   1.00
H226   H     0.70300   0.00654   0.28653   0.00000  Uiso   1.00
H227   H     0.67029   0.98058   0.22486   0.00000  Uiso   1.00
H228   H     0.72664   0.86983   0.22780   0.00000  Uiso   1.00
H229   H     0.75965   0.89580   0.28984   0.00000  Uiso   1.00
C230   C     0.28187   0.48330   0.54061   0.00000  Uiso   1.00
C231   C     0.31994   0.49496   0.52122   0.00000  Uiso   1.00
C232   C     0.32902   0.47969   0.48213   0.00000  Uiso   1.00
C233   C     0.30011   0.45235   0.46185   0.00000  Uiso   1.00
C234   C     0.26134   0.44276   0.48014   0.00000  Uiso   1.00
C235   C     0.25222   0.45802   0.51910   0.00000  Uiso   1.00
C236   C     0.27376   0.49525   0.58370   0.00000  Uiso   1.00
C237   C     0.23435   0.50366   0.59775   0.00000  Uiso   1.00
C238   C     0.22582   0.51172   0.63863   0.00000  Uiso   1.00
C239   C     0.25658   0.51209   0.66630   0.00000  Uiso   1.00
C240   C     0.29626   0.50490   0.65250   0.00000  Uiso   1.00
C241   C     0.30472   0.49617   0.61155   0.00000  Uiso   1.00
C242   C     0.24687   0.52185   0.70916   0.00000  Uiso   1.00
C243   C     0.26621   0.55698   0.72856   0.00000  Uiso   1.00
C244   C     0.24975   0.57213   0.76518   0.00000  Uiso   1.00
C245   C     0.21467   0.55164   0.78322   0.00000  Uiso   1.00
C246   C     0.19811   0.51427   0.76596   0.00000  Uiso   1.00
C247   C     0.21384   0.49967   0.72885   0.00000  Uiso   1.00
H248   H     0.34313   0.51500   0.53665   0.00000  Uiso   1.00
H249   H     0.35938   0.48748   0.46881   0.00000  Uiso   1.00
H250   H     0.23888   0.42145   0.46513   0.00000  Uiso   1.00
H251   H     0.22271   0.44811   0.53311   0.00000  Uiso   1.00
H252   H     0.21008   0.50415   0.57712   0.00000  Uiso   1.00
H253   H     0.19526   0.51833   0.64870   0.00000  Uiso   1.00
H254   H     0.32041   0.50538   0.67347   0.00000  Uiso   1.00
H255   H     0.33522   0.48921   0.60185   0.00000  Uiso   1.00
H256   H     0.29164   0.57456   0.71377   0.00000  Uiso   1.00
H257   H     0.26237   0.60139   0.77785   0.00000  Uiso   1.00
H258   H     0.17038   0.49864   0.77895   0.00000  Uiso   1.00
H259   H     0.19850   0.47256   0.71421   0.00000  Uiso   1.00
C260   C     0.22628   0.53656   0.05196   0.00000  Uiso   1.00
C261   C     0.24046   0.57326   0.03492   0.00000  Uiso   1.00
C262   C     0.22151   0.58532   1.00185   0.00000  Uiso   1.00
C263   C     0.18803   0.56096   0.98548   0.00000  Uiso   1.00
C264   C     0.17358   0.52462   1.00278   0.00000  Uiso   1.00
C265   C     0.19246   0.51256   0.03570   0.00000  Uiso   1.00
C266   C     0.24641   0.52293   0.08654   0.00000  Uiso   1.00
C267   C     0.25197   0.48185   0.08822   0.00000  Uiso   1.00
C268   C     0.26781   0.46804   0.12202   0.00000  Uiso   1.00
C269   C     0.27882   0.49509   0.15465   0.00000  Uiso   1.00
C270   C     0.27493   0.53641   0.15250   0.00000  Uiso   1.00
C271   C     0.25865   0.55025   0.11874   0.00000  Uiso   1.00
C272   C     0.29224   0.47951   0.19151   0.00000  Uiso   1.00
C273   C     0.32888   0.49602   0.20894   0.00000  Uiso   1.00
C274   C     0.34211   0.47944   0.24276   0.00000  Uiso   1.00
C275   C     0.31839   0.44674   0.25990   0.00000  Uiso   1.00
C276   C     0.28129   0.43104   0.24300   0.00000  Uiso   1.00
C277   C     0.26847   0.44710   0.20896   0.00000  Uiso   1.00
H278   H     0.26663   0.59221   0.04668   0.00000  Uiso   1.00
H279   H     0.23326   0.61345   0.98892   0.00000  Uiso   1.00
H280   H     0.14768   0.50541   0.99081   0.00000  Uiso   1.00
H281   H     0.18034   0.48452   0.04865   0.00000  Uiso   1.00
H282   H     0.24373   0.46027   0.06348   0.00000  Uiso   1.00
H283   H     0.27120   0.43611   0.12284   0.00000  Uiso   1.00
H284   H     0.28305   0.55766   0.17754   0.00000  Uiso   1.00
H285   H     0.25434   0.58200   0.11843   0.00000  Uiso   1.00
H286   H     0.34766   0.52098   0.19577   0.00000  Uiso   1.00
H287   H     0.37091   0.49190   0.25528   0.00000  Uiso   1.00
H288   H     0.26257   0.40571   0.25558   0.00000  Uiso   1.00
H289   H     0.23995   0.43415   0.19615   0.00000  Uiso   1.00
C290   C     0.19387   0.27924   0.46154   0.00000  Uiso   1.00
C291   C     0.19837   0.28805   0.42111   0.00000  Uiso   1.00
C292   C     0.23640   0.30306   0.40481   0.00000  Uiso   1.00
C293   C     0.27093   0.31024   0.42866   0.00000  Uiso   1.00
C294   C     0.26667   0.30087   0.46911   0.00000  Uiso   1.00
C295   C     0.22843   0.28512   0.48536   0.00000  Uiso   1.00
C296   C     0.15298   0.26399   0.47835   0.00000  Uiso   1.00
C297   C     0.14800   0.22858   0.49917   0.00000  Uiso   1.00
C298   C     0.10914   0.21319   0.51352   0.00000  Uiso   1.00
C299   C     0.07443   0.23347   0.50843   0.00000  Uiso   1.00
C300   C     0.07952   0.26890   0.48731   0.00000  Uiso   1.00
C301   C     0.11840   0.28387   0.47226   0.00000  Uiso   1.00
C302   C     0.03372   0.21814   0.52653   0.00000  Uiso   1.00
C303   C     0.99662   0.22053   0.50758   0.00000  Uiso   1.00
C304   C     0.95897   0.20356   0.52447   0.00000  Uiso   1.00
C305   C     0.95836   0.18350   0.56005   0.00000  Uiso   1.00
C306   C     0.99506   0.18253   0.57944   0.00000  Uiso   1.00
C307   C     0.03203   0.19992   0.56328   0.00000  Uiso   1.00
H308   H     0.17231   0.28346   0.40210   0.00000  Uiso   1.00
H309   H     0.23837   0.31022   0.37359   0.00000  Uiso   1.00
H310   H     0.29250   0.30673   0.48832   0.00000  Uiso   1.00
H311   H     0.22552   0.27871   0.51679   0.00000  Uiso   1.00
H312   H     0.17407   0.21233   0.50354   0.00000  Uiso   1.00
H313   H     0.10633   0.18510   0.52842   0.00000  Uiso   1.00
H314   H     0.05368   0.28546   0.48306   0.00000  Uiso   1.00
H315   H     0.12162   0.31133   0.45625   0.00000  Uiso   1.00
H316   H    -0.00318   0.23418   0.47911   0.00000  Uiso   1.00
H317   H     0.93093   0.20458   0.50905   0.00000  Uiso   1.00
H318   H     0.99521   0.16753   0.60719   0.00000  Uiso   1.00
H319   H     0.05944   0.19853   0.57956   0.00000  Uiso   1.00
C320   C     0.95627   0.92278   0.70228   0.00000  Uiso   1.00
C321   C     0.97425   0.94097   0.66808   0.00000  Uiso   1.00
C322   C     0.95862   0.97435   0.65407   0.00000  Uiso   1.00
C323   C     0.92453  -0.00993   0.67378   0.00000  Uiso   1.00
C324   C     0.90589  -0.02852   0.70748   0.00000  Uiso   1.00
C325   C     0.92178   0.93815   0.72177   0.00000  Uiso   1.00
C326   C     0.97439   0.88858   0.71791   0.00000  Uiso   1.00
C327   C     0.98067   0.88778   0.75906   0.00000  Uiso   1.00
C328   C     0.99996   0.85663   0.77341   0.00000  Uiso   1.00
C329   C     0.01316   0.82563   0.74687   0.00000  Uiso   1.00
C330   C     0.00638   0.82623   0.70578   0.00000  Uiso   1.00
C331   C    -0.01278   0.85740   0.69145   0.00000  Uiso   1.00
C332   C     0.03378   0.79265   0.76195   0.00000  Uiso   1.00
C333   C     0.06782   0.77830   0.74060   0.00000  Uiso   1.00
C334   C     0.08686   0.74679   0.75461   0.00000  Uiso   1.00
C335   C     0.07224   0.72920   0.79023   0.00000  Uiso   1.00
C336   C     0.03835   0.74358   0.81162   0.00000  Uiso   1.00
C337   C     0.01933   0.77503   0.79768   0.00000  Uiso   1.00
H338   H     1.00107   0.92999   0.65271   0.00000  Uiso   1.00
H339   H     0.97353   0.98813   0.62799   0.00000  Uiso   1.00
H340   H     0.87956  -0.01689   0.72312   0.00000  Uiso   1.00
H341   H     0.90714   0.92435   0.74796   0.00000  Uiso   1.00
H342   H     0.97167   0.91183   0.77997   0.00000  Uiso   1.00
H343   H     1.00530   0.85724   0.80515   0.00000  Uiso   1.00
H344   H     0.01556   0.80236   0.68476   0.00000  Uiso   1.00
H345   H    -0.01770   0.85710   0.65964   0.00000  Uiso   1.00
H346   H     0.08000   0.79175   0.71330   0.00000  Uiso   1.00
H347   H     0.11311   0.73635   0.73775   0.00000  Uiso   1.00
H348   H     0.02621   0.73022   0.83895   0.00000  Uiso   1.00
H349   H    -0.00713   0.78510   0.81449   0.00000  Uiso   1.00
C350   C     0.01036   0.44465   0.78118   0.00000  Uiso   1.00
C351   C     0.03730   0.46827   0.75569   0.00000  Uiso   1.00
C352   C     0.05238   0.50794   0.76805   0.00000  Uiso   1.00
C353   C     0.04134   0.52435   0.80629   0.00000  Uiso   1.00
C354   C     0.01180   0.50225   0.83020   0.00000  Uiso   1.00
C355   C    -0.00401   0.46309   0.81754   0.00000  Uiso   1.00
C356   C     1.00016   0.40029   0.77186   0.00000  Uiso   1.00
C357   C     0.99536   0.37344   0.80304   0.00000  Uiso   1.00
C358   C     0.98602   0.33183   0.79481   0.00000  Uiso   1.00
C359   C     0.98221   0.31589   0.75515   0.00000  Uiso   1.00
C360   C     0.98799   0.34229   0.72381   0.00000  Uiso   1.00
C361   C    -0.00340   0.38406   0.73205   0.00000  Uiso   1.00
C362   C     0.96875   0.27243   0.74637   0.00000  Uiso   1.00
C363   C     0.98932   0.24969   0.71642   0.00000  Uiso   1.00
C364   C     0.97185   0.21134   0.70264   0.00000  Uiso   1.00
C365   C     0.93313   0.19578   0.71780   0.00000  Uiso   1.00
C366   C     0.91415   0.21709   0.74987   0.00000  Uiso   1.00
C367   C     0.93214   0.25490   0.76447   0.00000  Uiso   1.00
H368   H     0.04913   0.45531   0.72749   0.00000  Uiso   1.00
H369   H     0.07564   0.52424   0.74939   0.00000  Uiso   1.00
H370   H     0.00290   0.51438   0.85985   0.00000  Uiso   1.00
H371   H     0.97405   0.44656   0.83729   0.00000  Uiso   1.00
H372   H     0.99921   0.38446   0.83396   0.00000  Uiso   1.00
H373   H     0.98182   0.31203   0.81944   0.00000  Uiso   1.00
H374   H     0.98445   0.33068   0.69298   0.00000  Uiso   1.00
H375   H    -0.00033   0.40360   0.70725   0.00000  Uiso   1.00
H376   H     1.01766   0.26257   0.70211   0.00000  Uiso   1.00
H377   H     0.98653   0.19580   0.67731   0.00000  Uiso   1.00
H378   H     0.88394   0.20590   0.76149   0.00000  Uiso   1.00
H379   H     0.91571   0.27190   0.78756   0.00000  Uiso   1.00
C380   C     0.81860   0.76903   0.03077   0.00000  Uiso   1.00
C381   C     0.80923   0.80743   0.02143   0.00000  Uiso   1.00
C382   C     0.77298   0.82222   0.03696   0.00000  Uiso   1.00
C383   C     0.74589   0.79903   0.06239   0.00000  Uiso   1.00
C384   C     0.75515   0.76056   0.07133   0.00000  Uiso   1.00
C385   C     0.79108   0.74570   0.05568   0.00000  Uiso   1.00
C386   C     0.85709   0.75322   1.01512   0.00000  Uiso   1.00
C387   C     0.85669   0.71275   1.00013   0.00000  Uiso   1.00
C388   C     0.89302   0.69732   0.98640   0.00000  Uiso   1.00
C389   C     0.93054   0.72199   0.98734   0.00000  Uiso   1.00
C390   C     0.93096   0.76254   1.00223   0.00000  Uiso   1.00
C391   C     0.89455   0.77801   1.01601   0.00000  Uiso   1.00
C392   C     0.96870   0.70568   0.97127   0.00000  Uiso   1.00
C393   C    -0.00379   0.72832   0.94575   0.00000  Uiso   1.00
C394   C     0.03010   0.71148   0.92745   0.00000  Uiso   1.00
C395   C     0.03730   0.67181   0.93448   0.00000  Uiso   1.00
C396   C     0.01093   0.64981   0.96143   0.00000  Uiso   1.00
C397   C     0.97677   0.66652   0.97948   0.00000  Uiso   1.00
H398   H     0.82983   0.82590   1.00203   0.00000  Uiso   1.00
H399   H     0.76645   0.85193   0.02961   0.00000  Uiso   1.00
H400   H     0.73484   0.74206   0.09090   0.00000  Uiso   1.00
H401   H     0.79781   0.71627   0.06381   0.00000  Uiso   1.00
H402   H     0.82814   0.69314   0.99859   0.00000  Uiso   1.00
H403   H     0.89165   0.66624   0.97429   0.00000  Uiso   1.00
H404   H     0.95951   0.78212   1.00364   0.00000  Uiso   1.00
H405   H     0.89574   0.80913   1.02804   0.00000  Uiso   1.00
H406   H    -0.00935   0.75846   0.93873   0.00000  Uiso   1.00
H407   H     0.05032   0.72927   0.90720   0.00000  Uiso   1.00
H408   H     0.01572   0.61911   0.96718   0.00000  Uiso   1.00
H409   H     0.95622   0.64861   0.99936   0.00000  Uiso   1.00
C410   C     0.53068   0.71752   0.24956   0.00000  Uiso   1.00
C411   C     0.55537   0.74964   0.26860   0.00000  Uiso   1.00
C412   C     0.56731   0.78519   0.24883   0.00000  Uiso   1.00
C413   C     0.55357   0.78949   0.21043   0.00000  Uiso   1.00
C414   C     0.52636   0.75870   0.19286   0.00000  Uiso   1.00
C415   C     0.51498   0.72306   0.21225   0.00000  Uiso   1.00
C416   C     0.52512   0.67684   0.26590   0.00000  Uiso   1.00
C417   C     0.53336   0.64280   0.24092   0.00000  Uiso   1.00
C418   C     0.52720   0.60407   0.25518   0.00000  Uiso   1.00
C419   C     0.51188   0.59821   0.29465   0.00000  Uiso   1.00
C420   C     0.50481   0.63247   0.32009   0.00000  Uiso   1.00
C421   C     0.51161   0.67145   0.30589   0.00000  Uiso   1.00
C422   C     0.49938   0.55649   0.30756   0.00000  Uiso   1.00
C423   C     0.50345   0.54624   0.34727   0.00000  Uiso   1.00
C424   C     0.48635   0.50848   0.36006   0.00000  Uiso   1.00
C425   C     0.46464   0.48059   0.33337   0.00000  Uiso   1.00
C426   C     0.46323   0.48975   0.29313   0.00000  Uiso   1.00
C427   C     0.48014   0.52719   0.28044   0.00000  Uiso   1.00
H428   H     0.56791   0.74597   0.29729   0.00000  Uiso   1.00
H429   H     0.58957   0.80795   0.26220   0.00000  Uiso   1.00
H430   H     0.51665   0.76080   0.16264   0.00000  Uiso   1.00
H431   H     0.49568   0.69886   0.19709   0.00000  Uiso   1.00
H432   H     0.54460   0.64616   0.21017   0.00000  Uiso   1.00
H433   H     0.53385   0.57855   0.23502   0.00000  Uiso   1.00
H434   H     0.49247   0.62910   0.35047   0.00000  Uiso   1.00
H435   H     0.50502   0.69726   0.32566   0.00000  Uiso   1.00
H436   H     0.51870   0.56786   0.36873   0.00000  Uiso   1.00
H437   H     0.48787   0.50216   0.39128   0.00000  Uiso   1.00
H438   H     0.44688   0.46877   0.27181   0.00000  Uiso   1.00
H439   H     0.47590   0.53394   0.24981   0.00000  Uiso   1.00
loop_
_geom_bond_atom_site_label_1
_geom_bond_atom_site_label_2
_geom_bond_distance
_geom_bond_site_symmetry_2
_ccdc_geom_bond_type
Gd0    O3      2.246   .     S
Gd0    O4      2.208   .     S
Gd0    O6      2.240   .     S
Gd0    O7      2.249   .     S
Gd0    O8      2.230   .     S
Gd0    O11     2.262   .     S
Gd1    O2      2.208   .     S
Gd1    O5      2.240   .     S
Gd1    O10     2.250   .     S
Gd1    O13     2.228   .     S
Gd1    O14     2.236   .     S
Gd1    O15     2.251   .     S
O2     C16     1.266   .     A
O3     C16     1.273   .     A
O4     C12     1.266   .     A
O5     C12     1.271   .     A
O6     C9      1.271   .     A
O7     C9      1.266   .     A
O8     C19     1.271   .     A
C9     C335    1.471   .     S
O10    C19     1.280   .     A
O11    C18     1.280   .     A
C12    C245    1.462   .     S
O13    C18     1.269   .     A
O14    C17     1.263   .     A
O15    C17     1.271   .     A
C16    C353    1.470   .     S
C17    C263    1.470   .     S
C18    C395    1.475   .     S
C19    C95     1.473   .     S
Gd20   O23     2.236   .     S
Gd20   O24     2.219   .     S
Gd20   O26     2.257   .     S
Gd20   O27     2.232   .     S
Gd20   O28     2.236   .     S
Gd20   O31     2.256   .     S
Gd21   O22     2.218   .     S
Gd21   O25     2.244   .     S
Gd21   O30     2.246   .     S
Gd21   O33     2.236   .     S
Gd21   O34     2.229   .     S
Gd21   O35     2.262   .     S
O22    C36     1.267   .     A
O23    C36     1.270   .     A
O24    C32     1.267   .     A
O25    C32     1.273   .     A
O26    C29     1.272   .     A
O27    C29     1.261   .     A
O28    C39     1.273   .     A
C29    C383    1.474   .     S
O30    C39     1.279   .     A
O31    C38     1.281   .     A
C32    C413    1.467   .     S
O33    C38     1.271   .     A
O34    C37     1.260   .     A
O35    C37     1.272   .     A
C36    C83     1.464   .     S
C37    C125    1.472   .     S
C38    C185    1.486   .     S
C39    C215    1.483   .     S
Gd40   O43     2.240   .     S
Gd40   O44     2.198   .     S
Gd40   O46     2.260   .     S
Gd40   O47     2.229   .     S
Gd40   O48     2.233   .     S
Gd40   O51     2.241   .     S
Gd41   O42     2.213   .     S
Gd41   O45     2.252   .     S
Gd41   O50     2.256   .     S
Gd41   O53     2.246   .     S
Gd41   O54     2.241   .     S
Gd41   O55     2.260   .     S
O42    C56     1.266   .     A
O43    C56     1.272   .     A
O44    C52     1.264   .     A
O45    C52     1.274   .     A
O46    C49     1.271   .     A
O47    C49     1.259   .     A
O48    C59     1.272   .     A
C49    C323    1.470   .     S
O50    C59     1.280   .     A
O51    C58     1.277   .     A
C52    C305    1.470   .     S
O53    C58     1.276   .     A
O54    C57     1.261   .     A
O55    C57     1.272   .     A
C56    C365    1.468   .     S
C57    C143    1.474   .     S
C58    C173    1.482   .     S
C59    C203    1.485   .     S
Gd60   O63     2.297   .     S
Gd60   O64     2.205   .     S
Gd60   O66     2.267   .     S
Gd60   O67     2.243   .     S
Gd60   O68     2.216   .     S
Gd60   O71     2.231   .     S
Gd61   O62     2.299   .     S
Gd61   O65     2.258   .     S
Gd61   O70     2.266   .     S
Gd61   O73     2.253   .     S
Gd61   O74     2.258   .     S
Gd61   O75     2.220   .     S
O62    C76     1.273   .     A
O63    C76     1.265   .     A
O64    C72     1.257   .     A
O65    C72     1.267   .     A
O66    C69     1.264   .     A
O67    C69     1.255   .     A
O68    C79     1.280   .     A
C69    C275    1.469   .     S
O70    C79     1.291   .     A
O71    C78     1.268   .     A
C72    C293    1.481   .     S
O73    C78     1.265   .     A
O74    C77     1.272   .     A
O75    C77     1.270   .     A
C76    C233    1.472   .     S
C77    C155    1.474   .     S
C78    C425    1.477   .     S
C79    C113    1.483   .     S
C80    C85     1.404   .     A
C80    C81     1.406   1_554 A
C80    C86     1.482   1_554 S
C81    H98     1.083   .     S
C81    C80     1.406   1_556 A
C81    C82     1.404   1_556 A
C82    C83     1.403   .     A
C82    C81     1.404   1_554 A
C82    H99     1.083   1_554 S
C83    C84     1.399   .     A
C84    C85     1.392   .     A
C84    H100    1.083   .     S
C85    H101    1.083   .     S
C86    C91     1.404   .     A
C86    C80     1.482   1_556 S
C86    C87     1.405   1_556 A
C87    C88     1.393   .     A
C87    H102    1.083   .     S
C87    C86     1.405   1_554 A
C88    H103    1.083   .     S
C88    C89     1.403   1_554 A
C89    C90     1.407   .     A
C89    C92     1.483   .     S
C89    C88     1.403   1_556 A
C90    C91     1.402   .     A
C90    H104    1.083   .     S
C91    H105    1.082   .     S
C92    C93     1.406   .     A
C92    C97     1.404   .     A
C93    C94     1.402   .     A
C93    H106    1.082   .     S
C94    C95     1.405   .     A
C94    H107    1.082   .     S
C95    C96     1.401   .     A
C96    C97     1.392   .     A
C96    H108    1.082   .     S
C97    H109    1.082   1_556 S
H99    C82     1.083   1_556 S
H109   C97     1.082   1_554 S
C110   C111    1.404   .     A
C110   C115    1.409   .     A
C110   C116    1.489   .     S
C111   C112    1.394   .     A
C111   H128    1.083   .     S
C112   C113    1.406   .     A
C112   H129    1.081   .     S
C113   C114    1.405   .     A
C114   C115    1.403   .     A
C114   H130    1.083   .     S
C115   H131    1.082   .     S
C116   C117    1.406   .     A
C116   C121    1.408   .     A
C117   C118    1.400   .     A
C117   H132    1.082   .     S
C118   C119    1.404   .     A
C118   H133    1.083   .     S
C119   C120    1.401   .     A
C119   C122    1.479   .     S
C120   C121    1.396   .     A
C120   H134    1.083   .     S
C121   H135    1.082   .     S
C122   C123    1.407   .     A
C122   C127    1.401   .     A
C123   H136    1.083   .     S
C123   C124    1.401   1_545 A
C124   C125    1.403   .     A
C124   H137    1.083   .     S
C124   C123    1.401   1_565 A
C125   C126    1.404   1_565 A
C126   C127    1.394   .     A
C126   H138    1.083   .     S
C126   C125    1.404   1_545 A
C127   H139    1.083   .     S
C140   C141    1.408   .     A
C140   C145    1.411   .     A
C140   C146    1.496   .     S
C141   C142    1.396   .     A
C141   H158    1.081   .     S
C142   C143    1.402   .     A
C142   H159    1.083   .     S
C143   C144    1.402   .     A
C144   C145    1.400   .     A
C144   H160    1.084   .     S
C145   H161    1.081   .     S
C146   C147    1.406   .     A
C146   C151    1.410   .     A
C147   C148    1.396   .     A
C147   H162    1.081   .     S
C148   C149    1.406   .     A
C148   H163    1.082   .     S
C149   C150    1.404   .     A
C149   C152    1.488   .     S
C150   C151    1.399   .     A
C150   H164    1.083   .     S
C151   H165    1.081   .     S
C152   C153    1.410   .     A
C152   C157    1.404   .     A
C153   C154    1.404   .     A
C153   H166    1.082   .     S
C154   C155    1.403   .     A
C154   H167    1.083   .     S
C155   C156    1.403   .     A
C156   C157    1.391   .     A
C156   H168    1.083   .     S
C157   H169    1.083   .     S
C170   C171    1.406   .     A
C170   C176    1.491   .     S
C170   C175    1.407   1_545 A
C171   C172    1.403   .     A
C171   H188    1.083   .     S
C172   C173    1.406   .     A
C172   H189    1.083   .     S
C173   C174    1.405   .     A
C174   C175    1.398   1_545 A
C174   H190    1.083   1_545 S
C175   H191    1.083   .     S
C175   C170    1.407   1_565 A
C175   C174    1.398   1_565 A
C176   C181    1.409   .     A
C176   C177    1.404   1_545 A
C177   C178    1.397   .     A
C177   H192    1.083   .     S
C177   C176    1.404   1_565 A
C178   C179    1.406   .     A
C178   H193    1.083   .     S
C179   C182    1.488   .     S
C179   C180    1.406   1_565 A
C180   C181    1.404   .     A
C180   H194    1.083   .     S
C180   C179    1.406   1_545 A
C181   H195    1.083   .     S
C182   C183    1.406   .     A
C182   C187    1.405   .     A
C183   C184    1.405   1_556 A
C183   H196    1.083   1_565 S
C184   C185    1.409   .     A
C184   H197    1.083   .     S
C184   C183    1.405   1_554 A
C185   C186    1.404   1_554 A
C186   C187    1.397   .     A
C186   H198    1.082   .     S
C186   C185    1.404   1_556 A
C187   H199    1.083   .     S
H190   C174    1.083   1_565 S
H196   C183    1.083   1_545 S
C200   C201    1.406   .     A
C200   C206    1.490   .     S
C200   C205    1.407   1_545 A
C201   C202    1.397   .     A
C201   H218    1.083   .     S
C202   C203    1.406   .     A
C202   H219    1.082   .     S
C203   C204    1.407   1_545 A
C204   C205    1.402   .     A
C204   H220    1.083   .     S
C204   C203    1.407   1_565 A
C205   H221    1.082   .     S
C205   C200    1.407   1_565 A
C206   C211    1.406   .     A
C206   C207    1.406   1_545 A
C207   C208    1.402   .     A
C207   H222    1.082   .     S
C207   C206    1.406   1_565 A
C208   C209    1.408   .     A
C208   H223    1.083   .     S
C209   C212    1.491   .     S
C209   C210    1.406   1_565 A
C210   C211    1.398   .     A
C210   H224    1.083   .     S
C210   C209    1.406   1_545 A
C211   H225    1.083   .     S
C212   C213    1.407   .     A
C212   C217    1.407   .     A
C213   C214    1.398   .     A
C213   H226    1.083   1_565 S
C214   C215    1.404   .     A
C214   H227    1.082   .     S
C215   C216    1.406   .     A
C216   C217    1.402   .     A
C216   H228    1.083   .     S
C217   H229    1.083   .     S
H226   C213    1.083   1_545 S
C230   C231    1.406   .     A
C230   C235    1.407   .     A
C230   C236    1.487   .     S
C231   C232    1.399   .     A
C231   H248    1.083   .     S
C232   C233    1.407   .     A
C232   H249    1.083   .     S
C233   C234    1.398   .     A
C234   C235    1.396   .     A
C234   H250    1.083   .     S
C235   H251    1.082   .     S
C236   C237    1.405   .     A
C236   C241    1.409   .     A
C237   C238    1.394   .     A
C237   H252    1.082   .     S
C238   C239    1.402   .     A
C238   H253    1.083   .     S
C239   C240    1.401   .     A
C239   C242    1.474   .     S
C240   C241    1.400   .     A
C240   H254    1.083   .     S
C241   H255    1.082   .     S
C242   C243    1.402   .     A
C242   C247    1.404   .     A
C243   C244    1.397   .     A
C243   H256    1.083   .     S
C244   C245    1.403   .     A
C244   H257    1.083   .     S
C245   C246    1.401   .     A
C246   C247    1.396   .     A
C246   H258    1.084   .     S
C247   H259    1.083   .     S
C260   C261    1.405   .     A
C260   C265    1.405   .     A
C260   C266    1.481   .     S
C261   H278    1.083   .     S
C261   C262    1.398   1_554 A
C262   C263    1.404   .     A
C262   H279    1.082   .     S
C262   C261    1.398   1_556 A
C263   C264    1.401   .     A
C264   H280    1.083   .     S
C264   C265    1.393   1_556 A
C265   H281    1.083   .     S
C265   C264    1.393   1_554 A
C266   C267    1.405   .     A
C266   C271    1.406   .     A
C267   C268    1.393   .     A
C267   H282    1.083   .     S
C268   C269    1.402   .     A
C268   H283    1.083   .     S
C269   C270    1.403   .     A
C269   C272    1.474   .     S
C270   C271    1.399   .     A
C270   H284    1.083   .     S
C271   H285    1.083   .     S
C272   C273    1.404   .     A
C272   C277    1.402   .     A
C273   C274    1.400   .     A
C273   H286    1.083   .     S
C274   C275    1.404   .     A
C274   H287    1.083   .     S
C275   C276    1.402   .     A
C276   C277    1.392   .     A
C276   H288    1.083   .     S
C277   H289    1.083   .     S
C290   C291    1.399   .     A
C290   C295    1.408   .     A
C290   C296    1.479   .     S
C291   C292    1.392   .     A
C291   H308    1.083   .     S
C292   C293    1.409   .     A
C292   H309    1.083   .     S
C293   C294    1.404   .     A
C294   C295    1.404   .     A
C294   H310    1.082   .     S
C295   H311    1.083   .     S
C296   C297    1.399   .     A
C296   C301    1.406   .     A
C297   C298    1.396   .     A
C297   H312    1.083   .     S
C298   C299    1.411   .     A
C298   H313    1.082   .     S
C299   C300    1.405   .     A
C299   C302    1.491   .     S
C300   C301    1.400   .     A
C300   H314    1.082   .     S
C301   H315    1.083   .     S
C302   C307    1.402   .     A
C302   C303    1.414   1_455 A
C303   C304    1.409   .     A
C303   C302    1.414   1_655 A
C303   H316    1.081   1_655 S
C304   C305    1.401   .     A
C304   H317    1.083   .     S
C305   C306    1.402   .     A
C306   H318    1.083   .     S
C306   C307    1.386   1_655 A
C307   H319    1.082   .     S
C307   C306    1.386   1_455 A
H316   C303    1.081   1_455 S
C320   C321    1.403   .     A
C320   C325    1.406   .     A
C320   C326    1.478   .     S
C321   C322    1.392   .     A
C321   H338    1.083   .     S
C322   H339    1.082   .     S
C322   C323    1.403   1_565 A
C323   C324    1.402   .     A
C323   C322    1.403   1_545 A
C324   H340    1.082   .     S
C324   C325    1.399   1_545 A
C325   H341    1.082   .     S
C325   C324    1.399   1_565 A
C326   C327    1.403   .     A
C326   C331    1.404   1_655 A
C327   C328    1.396   .     A
C327   H342    1.083   .     S
C328   H343    1.082   .     S
C328   C329    1.406   1_655 A
C329   C330    1.404   .     A
C329   C332    1.481   .     S
C329   C328    1.406   1_455 A
C330   C331    1.395   .     A
C330   H344    1.082   .     S
C331   H345    1.083   .     S
C331   C326    1.404   1_455 A
C332   C333    1.406   .     A
C332   C337    1.404   .     A
C333   C334    1.397   .     A
C333   H346    1.082   .     S
C334   C335    1.402   .     A
C334   H347    1.082   .     S
C335   C336    1.404   .     A
C336   C337    1.394   .     A
C336   H348    1.082   .     S
C337   H349    1.083   .     S
C350   C351    1.410   .     A
C350   C355    1.407   .     A
C350   C356    1.493   1_455 S
C351   C352    1.401   .     A
C351   H368    1.082   .     S
C352   C353    1.402   .     A
C352   H369    1.083   .     S
C353   C354    1.401   .     A
C354   C355    1.395   .     A
C354   H370    1.083   .     S
C355   H371    1.082   1_455 S
C356   C357    1.410   .     A
C356   C350    1.493   1_655 S
C356   C361    1.407   1_655 A
C357   C358    1.397   .     A
C357   H372    1.082   .     S
C358   C359    1.400   .     A
C358   H373    1.083   .     S
C359   C360    1.405   .     A
C359   C362    1.480   .     S
C360   H374    1.083   .     S
C360   C361    1.399   1_655 A
C361   H375    1.082   .     S
C361   C356    1.407   1_455 A
C361   C360    1.399   1_455 A
C362   C363    1.404   .     A
C362   C367    1.404   .     A
C363   C364    1.399   .     A
C363   H376    1.083   .     S
C364   C365    1.402   .     A
C364   H377    1.082   .     S
C365   C366    1.403   .     A
C366   C367    1.398   .     A
C366   H378    1.083   .     S
C367   H379    1.083   .     S
H371   C355    1.082   1_655 S
C380   C381    1.406   .     A
C380   C385    1.403   .     A
C380   C386    1.480   1_554 S
C381   C382    1.400   .     A
C381   H398    1.083   1_554 S
C382   C383    1.403   .     A
C382   H399    1.082   .     S
C383   C384    1.403   .     A
C384   C385    1.393   .     A
C384   H400    1.082   .     S
C385   H401    1.083   .     S
C386   C387    1.404   .     A
C386   C391    1.404   .     A
C386   C380    1.480   1_556 S
C387   C388    1.395   .     A
C387   H402    1.083   .     S
C388   C389    1.404   .     A
C388   H403    1.082   .     S
C389   C390    1.406   .     A
C389   C392    1.482   .     S
C390   C391    1.398   .     A
C390   H404    1.082   .     S
C391   H405    1.083   .     S
C392   C397    1.406   .     A
C392   C393    1.403   1_655 A
C393   C394    1.396   .     A
C393   H406    1.083   .     S
C393   C392    1.403   1_455 A
C394   C395    1.405   .     A
C394   H407    1.082   .     S
C395   C396    1.402   .     A
C396   H408    1.083   .     S
C396   C397    1.399   1_455 A
C397   H409    1.082   .     S
C397   C396    1.399   1_655 A
H398   C381    1.083   1_556 S
C410   C411    1.405   .     A
C410   C415    1.404   .     A
C410   C416    1.484   .     S
C411   C412    1.403   .     A
C411   H428    1.082   .     S
C412   C413    1.403   .     A
C412   H429    1.083   .     S
C413   C414    1.401   .     A
C414   C415    1.396   .     A
C414   H430    1.083   .     S
C415   H431    1.083   .     S
C416   C417    1.404   .     A
C416   C421    1.403   .     A
C417   C418    1.395   .     A
C417   H432    1.083   .     S
C418   C419    1.406   .     A
C418   H433    1.083   .     S
C419   C420    1.409   .     A
C419   C422    1.491   .     S
C420   C421    1.403   .     A
C420   H434    1.082   .     S
C421   H435    1.082   .     S
C422   C423    1.409   .     A
C422   C427    1.405   .     A
C423   C424    1.404   .     A
C423   H436    1.082   .     S
C424   C425    1.404   .     A
C424   H437    1.083   .     S
C425   C426    1.403   .     A
C426   C427    1.392   .     A
C426   H438    1.083   .     S
C427   H439    1.082   .     S
