data_lcy+N394+E59
_audit_creation_date              2025-01-21
_audit_creation_method            'Materials Studio'
_symmetry_space_group_name_H-M    'P1'
_symmetry_Int_Tables_number       1
_symmetry_cell_setting            triclinic
loop_
_symmetry_equiv_pos_as_xyz
  x,y,z
_cell_length_a                    36.6804
_cell_length_b                    33.0256
_cell_length_c                    34.0721
_cell_angle_alpha                 91.4652
_cell_angle_beta                  98.9673
_cell_angle_gamma                 89.7005
loop_
_atom_site_label
_atom_site_type_symbol
_atom_site_fract_x
_atom_site_fract_y
_atom_site_fract_z
_atom_site_U_iso_or_equiv
_atom_site_adp_type
_atom_site_occupancy
Pr0    Pr    0.08850   0.66134   0.85061   0.00000  Uiso   1.00
Pr1    Pr    0.14863   0.64304   0.93589   0.00000  Uiso   1.00
O2     O     0.09060   0.66450   0.95052   0.00000  Uiso   1.00
O3     O     0.04899   0.67430   0.89416   0.00000  Uiso   1.00
O4     O     0.04746   0.64404   0.79573   0.00000  Uiso   1.00
O5     O     0.05891   0.70713   0.80808   0.00000  Uiso   1.00
O6     O     0.12756   0.69765   0.89874   0.00000  Uiso   1.00
O7     O     0.13837   0.70048   0.83927   0.00000  Uiso   1.00
C8     C     0.08915   0.59052   0.91165   0.00000  Uiso   1.00
C9     C     0.05790   0.67331   0.93213   0.00000  Uiso   1.00
C10    C     0.04057   0.68049   0.78548   0.00000  Uiso   1.00
C11    C     0.19915   0.58334   0.95637   0.00000  Uiso   1.00
C12    C     0.15637   0.62216   0.84096   0.00000  Uiso   1.00
C13    C     0.14920   0.71234   0.87293   0.00000  Uiso   1.00
O14    O     0.13586   0.64502   0.81713   0.00000  Uiso   1.00
O15    O     0.14308   0.61047   0.87193   0.00000  Uiso   1.00
O16    O     0.20304   0.61004   0.93140   0.00000  Uiso   1.00
O17    O     0.16976   0.58724   0.97118   0.00000  Uiso   1.00
O18    O     0.11192   0.60535   0.88672   0.00000  Uiso   1.00
O19    O     0.09950   0.60194   0.94548   0.00000  Uiso   1.00
Pr20   Pr    0.62212   0.86570   0.07620   0.00000  Uiso   1.00
Pr21   Pr    0.63414   0.81363   0.16407   0.00000  Uiso   1.00
O22    O     0.67540   0.84390   0.12649   0.00000  Uiso   1.00
O23    O     0.67339   0.83527   0.06169   0.00000  Uiso   1.00
O24    O     0.62616   0.92427   0.04337   0.00000  Uiso   1.00
O25    O     0.59818   0.87402   1.01108   0.00000  Uiso   1.00
O26    O     0.61564   0.80051   0.09840   0.00000  Uiso   1.00
O27    O     0.57193   0.82150   0.05726   0.00000  Uiso   1.00
C28    C     0.63766   0.89821   0.16490   0.00000  Uiso   1.00
C29    C     0.68849   0.82654   0.09687   0.00000  Uiso   1.00
C30    C     0.60852   0.91072   0.01060   0.00000  Uiso   1.00
C31    C     0.62592   0.79437   0.23788   0.00000  Uiso   1.00
C32    C     0.55916   0.87420   0.13035   0.00000  Uiso   1.00
C33    C     0.58072   0.79444   0.07986   0.00000  Uiso   1.00
O34    O     0.57177   0.88914   0.10076   0.00000  Uiso   1.00
O35    O     0.57682   0.84817   0.15418   0.00000  Uiso   1.00
O36    O     0.60673   0.77778   0.20707   0.00000  Uiso   1.00
O37    O     0.64939   0.82072   0.23085   0.00000  Uiso   1.00
O38    O     0.65479   0.87303   0.14049   0.00000  Uiso   1.00
O39    O     0.61959   0.87886   0.18464   0.00000  Uiso   1.00
Pr40   Pr    0.89025   0.15842   0.53615   0.00000  Uiso   1.00
Pr41   Pr    0.88517   0.14495   0.64623   0.00000  Uiso   1.00
O42    O     0.89752   0.21254   0.66002   0.00000  Uiso   1.00
O43    O     0.89474   0.19012   0.59962   0.00000  Uiso   1.00
O44    O     0.92745   0.20944   0.52160   0.00000  Uiso   1.00
O45    O     0.92634   0.15362   0.48786   0.00000  Uiso   1.00
O46    O     0.92549   0.15429   0.59964   0.00000  Uiso   1.00
O47    O     0.93683   0.11103   0.55770   0.00000  Uiso   1.00
C48    C     0.82135   0.16789   0.59092   0.00000  Uiso   1.00
C49    C     0.90093   0.22082   0.62442   0.00000  Uiso   1.00
C50    C     0.93874   0.18961   0.49322   0.00000  Uiso   1.00
C51    C     0.84929   0.08614   0.67802   0.00000  Uiso   1.00
C52    C     0.86090   0.07439   0.57293   0.00000  Uiso   1.00
C53    C     0.94531   0.12139   0.59185   0.00000  Uiso   1.00
O54    O     0.86006   0.09892   0.54406   0.00000  Uiso   1.00
O55    O     0.87336   0.08310   0.61012   0.00000  Uiso   1.00
O56    O     0.86722   0.07999   0.64891   0.00000  Uiso   1.00
O57    O     0.84972   0.12282   0.69126   0.00000  Uiso   1.00
O58    O     0.85688   0.17047   0.58628   0.00000  Uiso   1.00
O59    O     0.82103   0.15869   0.62465   0.00000  Uiso   1.00
Pr60   Pr    0.37747   0.41306   0.41278   0.00000  Uiso   1.00
Pr61   Pr    0.39780   0.31229   0.39108   0.00000  Uiso   1.00
O62    O     0.37368   0.30570   0.44878   0.00000  Uiso   1.00
O63    O     0.36149   0.37249   0.46345   0.00000  Uiso   1.00
O64    O     0.36479   0.41681   0.47692   0.00000  Uiso   1.00
O65    O     0.39572   0.46452   0.45762   0.00000  Uiso   1.00
O66    O     0.41854   0.36245   0.43505   0.00000  Uiso   1.00
O67    O     0.44235   0.41574   0.42148   0.00000  Uiso   1.00
C68    C     0.32640   0.34433   0.36823   0.00000  Uiso   1.00
C69    C     0.36175   0.33389   0.47062   0.00000  Uiso   1.00
C70    C     0.38113   0.45046   0.48568   0.00000  Uiso   1.00
C71    C     0.39763   0.27752   0.31766   0.00000  Uiso   1.00
C72    C     0.41226   0.39311   0.33282   0.00000  Uiso   1.00
C73    C     0.44969   0.38155   0.43005   0.00000  Uiso   1.00
O74    O     0.39938   0.42110   0.35414   0.00000  Uiso   1.00
O75    O     0.41362   0.35464   0.34097   0.00000  Uiso   1.00
O76    O     0.41420   0.31056   0.32904   0.00000  Uiso   1.00
O77    O     0.38144   0.26187   0.34391   0.00000  Uiso   1.00
O78    O     0.35850   0.36335   0.36776   0.00000  Uiso   1.00
O79    O     0.33270   0.30992   0.37691   0.00000  Uiso   1.00
C80    C     0.27967   0.72556   0.92500   0.00000  Uiso   1.00
C81    C     0.34616   0.71493   0.93927   0.00000  Uiso   1.00
H82    H     0.42429   0.75580   0.09586   0.00000  Uiso   1.00
C83    C     0.31583   0.75594   0.98442   0.00000  Uiso   1.00
C84    C     0.28188   0.74923   0.96024   0.00000  Uiso   1.00
N85    N     0.52232   0.75881   0.05901   0.00000  Uiso   1.00
N86    N     0.21103   0.72767   0.90900   0.00000  Uiso   1.00
O87    O     0.49062   0.78425   0.10539   0.00000  Uiso   1.00
O88    O     0.24610   0.71852   0.86105   0.00000  Uiso   1.00
H89    H     0.55420   0.75722   0.11699   0.00000  Uiso   1.00
H90    H     0.57316   0.73030   0.07870   0.00000  Uiso   1.00
H91    H     0.36484   0.74213   0.05509   0.00000  Uiso   1.00
H92    H     0.47317   0.77139   0.98964   0.00000  Uiso   1.00
H93    H     0.41369   0.75765   0.94896   0.00000  Uiso   1.00
H94    H     0.52198   0.74708   0.03023   0.00000  Uiso   1.00
H95    H     0.31135   0.68974   0.88820   0.00000  Uiso   1.00
H96    H     0.18660   0.75521   0.85523   0.00000  Uiso   1.00
H97    H     0.16735   0.76965   0.89855   0.00000  Uiso   1.00
H98    H     0.37068   0.70113   0.93076   0.00000  Uiso   1.00
H99    H     0.25771   0.76414   0.96840   0.00000  Uiso   1.00
H100   H     0.31675   0.77538   1.01063   0.00000  Uiso   1.00
H101   H     0.20900   0.72511   0.93913   0.00000  Uiso   1.00
C102   C     0.42236   0.75637   0.06383   0.00000  Uiso   1.00
C103   C     0.48996   0.77003   0.07189   0.00000  Uiso   1.00
C104   C     0.55791   0.75817   0.08532   0.00000  Uiso   1.00
C105   C     0.38467   0.74809   0.99878   0.00000  Uiso   1.00
C106   C     0.45376   0.76376   0.04616   0.00000  Uiso   1.00
C107   C     0.38826   0.74856   0.04045   0.00000  Uiso   1.00
C108   C     0.45001   0.76435   1.00443   0.00000  Uiso   1.00
C109   C     0.41583   0.75653   0.98101   0.00000  Uiso   1.00
C110   C     0.31217   0.70814   0.91509   0.00000  Uiso   1.00
C111   C     0.24467   0.72305   0.89655   0.00000  Uiso   1.00
C112   C     0.17880   0.74359   0.88316   0.00000  Uiso   1.00
C113   C     0.34843   0.73934   0.97396   0.00000  Uiso   1.00
C114   C     0.52280   0.00413   0.15722   0.00000  Uiso   1.00
C115   C     0.49660   0.07196   0.15393   0.00000  Uiso   1.00
H116   H     0.52025   0.18489   0.28830   0.00000  Uiso   1.00
C117   C     0.52744   0.04738   0.21681   0.00000  Uiso   1.00
C118   C     0.53537   0.01090   0.19802   0.00000  Uiso   1.00
N119   N     0.41352   0.22143   0.27474   0.00000  Uiso   1.00
N120   N     0.52575   0.92884   0.15812   0.00000  Uiso   1.00
O121   O     0.47165   0.24493   0.28562   0.00000  Uiso   1.00
O122   O     0.52723   0.96233   0.10184   0.00000  Uiso   1.00
H123   H     0.40818   0.28260   0.25774   0.00000  Uiso   1.00
H124   H     0.36592   0.25799   0.26270   0.00000  Uiso   1.00
H125   H     0.54433   0.12618   0.25486   0.00000  Uiso   1.00
H126   H     0.41426   0.16834   0.21429   0.00000  Uiso   1.00
H127   H     0.43796   0.10986   0.18189   0.00000  Uiso   1.00
H128   H     0.39653   0.19594   0.26997   0.00000  Uiso   1.00
H129   H     0.49517   0.03173   0.10360   0.00000  Uiso   1.00
H130   H     0.50236   0.88917   0.11070   0.00000  Uiso   1.00
H131   H     0.51156   0.86716   0.15864   0.00000  Uiso   1.00
H132   H     0.48141   0.09513   0.13627   0.00000  Uiso   1.00
H133   H     0.55077   0.98793   0.21568   0.00000  Uiso   1.00
H134   H     0.53598   0.05109   0.24856   0.00000  Uiso   1.00
H135   H     0.52517   0.93003   0.18865   0.00000  Uiso   1.00
C136   C     0.50201   0.16856   0.26526   0.00000  Uiso   1.00
C137   C     0.45056   0.21753   0.27309   0.00000  Uiso   1.00
C138   C     0.39544   0.26094   0.27610   0.00000  Uiso   1.00
C139   C     0.49303   0.11351   0.21569   0.00000  Uiso   1.00
C140   C     0.46502   0.18074   0.25466   0.00000  Uiso   1.00
C141   C     0.51579   0.13498   0.24618   0.00000  Uiso   1.00
C142   C     0.44248   0.15918   0.22416   0.00000  Uiso   1.00
C143   C     0.45627   0.12601   0.20499   0.00000  Uiso   1.00
C144   C     0.50468   0.03571   0.13517   0.00000  Uiso   1.00
C145   C     0.52617   0.96396   0.13745   0.00000  Uiso   1.00
C146   C     0.52246   0.88867   0.13873   0.00000  Uiso   1.00
C147   C     0.50674   0.07765   0.19518   0.00000  Uiso   1.00
C148   C     0.53327   0.30088   0.51784   0.00000  Uiso   1.00
C149   C     0.57782   0.24844   0.54067   0.00000  Uiso   1.00
H150   H     0.72509   0.30133   0.57783   0.00000  Uiso   1.00
C151   C     0.58625   0.31650   0.56846   0.00000  Uiso   1.00
C152   C     0.55320   0.32835   0.54531   0.00000  Uiso   1.00
N153   N     0.75602   0.18759   0.57779   0.00000  Uiso   1.00
N154   N     0.50328   0.35308   0.47204   0.00000  Uiso   1.00
O155   O     0.77680   0.24847   0.60234   0.00000  Uiso   1.00
O156   O     0.48075   0.28989   0.47029   0.00000  Uiso   1.00
H157   H     0.78304   0.15032   0.53986   0.00000  Uiso   1.00
H158   H     0.79595   0.20265   0.54204   0.00000  Uiso   1.00
H159   H     0.66099   0.32342   0.56557   0.00000  Uiso   1.00
H160   H     0.69072   0.18430   0.61205   0.00000  Uiso   1.00
H161   H     0.62638   0.20664   0.60039   0.00000  Uiso   1.00
H162   H     0.73387   0.16750   0.57177   0.00000  Uiso   1.00
H163   H     0.53012   0.23824   0.49695   0.00000  Uiso   1.00
H164   H     0.48421   0.33495   0.41191   0.00000  Uiso   1.00
H165   H     0.50548   0.38355   0.41895   0.00000  Uiso   1.00
H166   H     0.58741   0.21770   0.53712   0.00000  Uiso   1.00
H167   H     0.54412   0.35934   0.54816   0.00000  Uiso   1.00
H168   H     0.60211   0.33887   0.58767   0.00000  Uiso   1.00
H169   H     0.52049   0.37536   0.48719   0.00000  Uiso   1.00
C170   C     0.70388   0.28080   0.58401   0.00000  Uiso   1.00
C171   C     0.75064   0.22566   0.59316   0.00000  Uiso   1.00
C172   C     0.78887   0.17717   0.56017   0.00000  Uiso   1.00
C173   C     0.63853   0.26652   0.58137   0.00000  Uiso   1.00
C174   C     0.71281   0.24081   0.59487   0.00000  Uiso   1.00
C175   C     0.66711   0.29348   0.57712   0.00000  Uiso   1.00
C176   C     0.68459   0.21492   0.60247   0.00000  Uiso   1.00
C177   C     0.64777   0.22773   0.59591   0.00000  Uiso   1.00
C178   C     0.54496   0.26030   0.51743   0.00000  Uiso   1.00
C179   C     0.50354   0.31448   0.48617   0.00000  Uiso   1.00
C180   C     0.48689   0.36258   0.43141   0.00000  Uiso   1.00
C181   C     0.59977   0.27688   0.56495   0.00000  Uiso   1.00
C182   C     0.66589   0.95208   0.89834   0.00000  Uiso   1.00
C183   C     0.69439   0.95400   0.83844   0.00000  Uiso   1.00
H184   H     0.84295  -0.00147   0.83421   0.00000  Uiso   1.00
C185   C     0.72432   0.98743   0.89883   0.00000  Uiso   1.00
C186   C     0.69575   0.97494   0.91868   0.00000  Uiso   1.00
N187   N     0.81848   0.06019   0.73155   0.00000  Uiso   1.00
N188   N     0.63301   0.94340   0.95700   0.00000  Uiso   1.00
O189   O     0.85643   0.01390   0.76322   0.00000  Uiso   1.00
O190   O     0.60449   0.93207   0.89458   0.00000  Uiso   1.00
H191   H     0.84374   0.02388   0.69059   0.00000  Uiso   1.00
H192   H     0.80180   0.04869   0.67045   0.00000  Uiso   1.00
H193   H     0.79848  -0.02556   0.87526   0.00000  Uiso   1.00
H194   H     0.75264   0.04299   0.74920   0.00000  Uiso   1.00
H195   H     0.70898   1.01955   0.79023   0.00000  Uiso   1.00
H196   H     0.79818   0.08202   0.73412   0.00000  Uiso   1.00
H197   H     0.64419   0.92310   0.84168   0.00000  Uiso   1.00
H198   H     0.57775   0.92110   0.95346   0.00000  Uiso   1.00
H199   H     0.58872   0.96585   0.98397   0.00000  Uiso   1.00
H200   H     0.69328   0.94576   0.80730   0.00000  Uiso   1.00
H201   H     0.69671   0.98486   0.94927   0.00000  Uiso   1.00
H202   H     0.74645   1.00592   0.91466   0.00000  Uiso   1.00
H203   H     0.65707   0.95108   0.97630   0.00000  Uiso   1.00
C204   C     0.81381   0.00404   0.82476   0.00000  Uiso   1.00
C205   C     0.82752   0.03285   0.76111   0.00000  Uiso   1.00
C206   C     0.82780   0.05252   0.69183   0.00000  Uiso   1.00
C207   C     0.75050  -0.00491   0.83570   0.00000  Uiso   1.00
C208   C     0.80147   0.02349   0.78881   0.00000  Uiso   1.00
C209   C     0.78851  -0.00978   0.84820   0.00000  Uiso   1.00
C210   C     0.76336   0.02932   0.77716   0.00000  Uiso   1.00
C211   C     0.73821   0.01529   0.80035   0.00000  Uiso   1.00
C212   C     0.66626   0.94106   0.85824   0.00000  Uiso   1.00
C213   C     0.63281   0.94177   0.91662   0.00000  Uiso   1.00
C214   C     0.59976   0.93631   0.97484   0.00000  Uiso   1.00
C215   C     0.72321   0.97801   0.85829   0.00000  Uiso   1.00
C216   C     0.68441   0.99253   0.26847   0.00000  Uiso   1.00
C217   C     0.69502   1.01672   0.33757   0.00000  Uiso   1.00
H218   H     0.84769   0.03050   0.41640   0.00000  Uiso   1.00
C219   C     0.74567   0.98876   0.30790   0.00000  Uiso   1.00
C220   C     0.72218   0.98295   0.27187   0.00000  Uiso   1.00
N221   N     0.82130   0.03073   0.52539   0.00000  Uiso   1.00
N222   N     0.66625   0.95465   0.20417   0.00000  Uiso   1.00
O223   O     0.86472   0.00832   0.49028   0.00000  Uiso   1.00
O224   O     0.62964   1.00306   0.22450   0.00000  Uiso   1.00
H225   H     0.83002   0.02347   0.58720   0.00000  Uiso   1.00
H226   H     0.86924   0.01079   0.56407   0.00000  Uiso   1.00
H227   H     0.80563   1.02644   0.35364   0.00000  Uiso   1.00
H228   H     0.75830   0.00066   0.47926   0.00000  Uiso   1.00
H229   H     0.71642   0.99544   0.41645   0.00000  Uiso   1.00
H230   H     0.79455   0.04195   0.52499   0.00000  Uiso   1.00
H231   H     0.64255   1.01869   0.29992   0.00000  Uiso   1.00
H232   H     0.61381   0.95748   0.16613   0.00000  Uiso   1.00
H233   H     0.65403   0.95345   0.14191   0.00000  Uiso   1.00
H234   H     0.68399   1.03038   0.36249   0.00000  Uiso   1.00
H235   H     0.73405   0.97102   0.24686   0.00000  Uiso   1.00
H236   H     0.77416   0.97928   0.30970   0.00000  Uiso   1.00
H237   H     0.69068   0.93805   0.20992   0.00000  Uiso   1.00
C238   C     0.81902   0.02304   0.41672   0.00000  Uiso   1.00
C239   C     0.83257   0.01796   0.49052   0.00000  Uiso   1.00
C240   C     0.84593   0.03245   0.56362   0.00000  Uiso   1.00
C241   C     0.75753   1.01052   0.37989   0.00000  Uiso   1.00
C242   C     0.80635   0.01624   0.45277   0.00000  Uiso   1.00
C243   C     0.79490   1.02051   0.38076   0.00000  Uiso   1.00
C244   C     0.76890   0.00686   0.45211   0.00000  Uiso   1.00
C245   C     0.74477   1.00410   0.41607   0.00000  Uiso   1.00
C246   C     0.67132   1.01032   0.30160   0.00000  Uiso   1.00
C247   C     0.65847   0.98404   0.23099   0.00000  Uiso   1.00
C248   C     0.64152   0.94332   0.16760   0.00000  Uiso   1.00
C249   C     0.73240   1.00539   0.34134   0.00000  Uiso   1.00
C250   C     0.23430   0.57303   0.74417   0.00000  Uiso   1.00
C251   C     0.28178   0.54412   0.70959   0.00000  Uiso   1.00
H252   H     0.25320   0.51331   0.54489   0.00000  Uiso   1.00
C253   C     0.21746   0.53063   0.68452   0.00000  Uiso   1.00
C254   C     0.20720   0.55377   0.71624   0.00000  Uiso   1.00
N255   N     0.35444   0.45962   0.54708   0.00000  Uiso   1.00
N256   N     0.19700   0.59187   0.79716   0.00000  Uiso   1.00
O257   O     0.31227   0.50195   0.51599   0.00000  Uiso   1.00
O258   O     0.24400   0.63059   0.78503   0.00000  Uiso   1.00
H259   H     0.38378   0.50484   0.52141   0.00000  Uiso   1.00
H260   H     0.41126   0.46387   0.54308   0.00000  Uiso   1.00
H261   H     0.22465   0.53286   0.60256   0.00000  Uiso   1.00
H262   H     0.34191   0.45552   0.62245   0.00000  Uiso   1.00
H263   H     0.31226   0.47335   0.67905   0.00000  Uiso   1.00
H264   H     0.36022   0.43638   0.56727   0.00000  Uiso   1.00
H265   H     0.29301   0.58176   0.76192   0.00000  Uiso   1.00
H266   H     0.21134   0.64009   0.83995   0.00000  Uiso   1.00
H267   H     0.20701   0.59078   0.85939   0.00000  Uiso   1.00
H268   H     0.31081   0.54177   0.70724   0.00000  Uiso   1.00
H269   H     0.17821   0.55779   0.71811   0.00000  Uiso   1.00
H270   H     0.19620   0.51690   0.66268   0.00000  Uiso   1.00
H271   H     0.18101   0.56589   0.78957   0.00000  Uiso   1.00
C272   C     0.26612   0.50363   0.57389   0.00000  Uiso   1.00
C273   C     0.32225   0.48159   0.54501   0.00000  Uiso   1.00
C274   C     0.38412   0.47146   0.52541   0.00000  Uiso   1.00
C275   C     0.26677   0.50552   0.64540   0.00000  Uiso   1.00
C276   C     0.30049   0.48350   0.57866   0.00000  Uiso   1.00
C277   C     0.24949   0.51459   0.60694   0.00000  Uiso   1.00
C278   C     0.31569   0.47099   0.61691   0.00000  Uiso   1.00
C279   C     0.29887   0.48165   0.64978   0.00000  Uiso   1.00
C280   C     0.27158   0.56752   0.74065   0.00000  Uiso   1.00
C281   C     0.22493   0.60048   0.77614   0.00000  Uiso   1.00
C282   C     0.19502   0.61168   0.83576   0.00000  Uiso   1.00
C283   C     0.25494   0.52587   0.68077   0.00000  Uiso   1.00
C284   C     0.26340   0.39503   0.24761   0.00000  Uiso   1.00
C285   C     0.23001   0.42396   0.18740   0.00000  Uiso   1.00
H286   H     0.30292   0.54486   0.10767   0.00000  Uiso   1.00
C287   C     0.29653   0.42959   0.20164   0.00000  Uiso   1.00
C288   C     0.29665   0.40832   0.23667   0.00000  Uiso   1.00
N289   N     0.22570   0.53554   1.00644   0.00000  Uiso   1.00
N290   N     0.28784   0.38281   0.31853   0.00000  Uiso   1.00
O291   O     0.28459   0.55590   0.03246   0.00000  Uiso   1.00
O292   O     0.23957   0.34743   0.28627   0.00000  Uiso   1.00
H293   H     0.25408   0.55980   0.96221   0.00000  Uiso   1.00
H294   H     0.21823   0.52399   0.94472   0.00000  Uiso   1.00
H295   H     0.30511   0.50424   0.16673   0.00000  Uiso   1.00
H296   H     0.21825   0.46622   0.04498   0.00000  Uiso   1.00
H297   H     0.22059   0.42565   0.10389   0.00000  Uiso   1.00
H298   H     0.20083   0.52439   1.01309   0.00000  Uiso   1.00
H299   H     0.20411   0.39276   0.23004   0.00000  Uiso   1.00
H300   H     0.26756   0.33893   0.35525   0.00000  Uiso   1.00
H301   H     0.28449   0.38563   0.37971   0.00000  Uiso   1.00
H302   H     0.20380   0.43036   0.16923   0.00000  Uiso   1.00
H303   H     0.32282   0.40184   0.25489   0.00000  Uiso   1.00
H304   H     0.32260   0.43925   0.19390   0.00000  Uiso   1.00
H305   H     0.30622   0.40676   0.31778   0.00000  Uiso   1.00
C306   C     0.28480   0.51889   0.10644   0.00000  Uiso   1.00
C307   C     0.25811   0.53490   0.03621   0.00000  Uiso   1.00
C308   C     0.22611   0.54955   0.96610   0.00000  Uiso   1.00
C309   C     0.26276   0.46189   0.14022   0.00000  Uiso   1.00
C310   C     0.25974   0.50952   0.07182   0.00000  Uiso   1.00
C311   C     0.28623   0.49544   0.14024   0.00000  Uiso   1.00
C312   C     0.23696   0.47533   0.07145   0.00000  Uiso   1.00
C313   C     0.23841   0.45187   0.10526   0.00000  Uiso   1.00
C314   C     0.23016   0.40258   0.22231   0.00000  Uiso   1.00
C315   C     0.26296   0.37332   0.28514   0.00000  Uiso   1.00
C316   C     0.28910   0.36267   0.35660   0.00000  Uiso   1.00
C317   C     0.26317   0.43795   0.17673   0.00000  Uiso   1.00
C318   C     0.06724   0.22068   0.48958   0.00000  Uiso   1.00
C319   C     0.12978   0.22565   0.47405   0.00000  Uiso   1.00
H320   H     0.23674   0.32718   0.57255   0.00000  Uiso   1.00
C321   C     0.10825   0.27516   0.51869   0.00000  Uiso   1.00
C322   C     0.07414   0.25537   0.51453   0.00000  Uiso   1.00
N323   N     0.30876   0.31191   0.49910   0.00000  Uiso   1.00
N324   N    -0.00145   0.22003   0.48753   0.00000  Uiso   1.00
O325   O     0.29085   0.35977   0.54041   0.00000  Uiso   1.00
O326   O     0.02875   0.16572   0.46812   0.00000  Uiso   1.00
H327   H     0.35406   0.34612   0.53077   0.00000  Uiso   1.00
H328   H     0.36353   0.29428   0.51968   0.00000  Uiso   1.00
H329   H     0.17557   0.29660   0.56500   0.00000  Uiso   1.00
H330   H     0.24101   0.30272   0.44839   0.00000  Uiso   1.00
H331   H     0.17924   0.27327   0.44033   0.00000  Uiso   1.00
H332   H     0.30123   0.28704   0.48014   0.00000  Uiso   1.00
H333   H     0.09167   0.17917   0.45057   0.00000  Uiso   1.00
H334   H     0.96523   0.18547   0.44169   0.00000  Uiso   1.00
H335   H     0.94801   0.23453   0.45211   0.00000  Uiso   1.00
H336   H     0.15101   0.21320   0.45844   0.00000  Uiso   1.00
H337   H     0.05359   0.26745   0.53115   0.00000  Uiso   1.00
H338   H     0.11241   0.30212   0.53759   0.00000  Uiso   1.00
H339   H    -0.00051   0.24821   0.50218   0.00000  Uiso   1.00
C340   C     0.22433   0.31558   0.54356   0.00000  Uiso   1.00
C341   C     0.28246   0.33124   0.51759   0.00000  Uiso   1.00
C342   C     0.34819   0.32156   0.50774   0.00000  Uiso   1.00
C343   C     0.17262   0.28184   0.50221   0.00000  Uiso   1.00
C344   C     0.24392   0.31627   0.51130   0.00000  Uiso   1.00
C345   C     0.18920   0.29824   0.53913   0.00000  Uiso   1.00
C346   C     0.22700   0.30127   0.47407   0.00000  Uiso   1.00
C347   C     0.19165   0.28436   0.46950   0.00000  Uiso   1.00
C348   C     0.09578   0.20588   0.46988   0.00000  Uiso   1.00
C349   C     0.03051   0.20032   0.48184   0.00000  Uiso   1.00
C350   C     0.96235   0.20761   0.46618   0.00000  Uiso   1.00
C351   C     0.13634   0.26082   0.49814   0.00000  Uiso   1.00
C352   C    -0.02232   0.79324   0.70826   0.00000  Uiso   1.00
C353   C     0.93810   0.84996   0.68487   0.00000  Uiso   1.00
H354   H    -0.01188   0.01215   0.73459   0.00000  Uiso   1.00
C355   C     0.00183   0.86198   0.71372   0.00000  Uiso   1.00
C356   C     0.00697   0.82046   0.71953   0.00000  Uiso   1.00
N357   N     0.96398   0.06092   0.62913   0.00000  Uiso   1.00
N358   N     0.00730   0.73416   0.74467   0.00000  Uiso   1.00
O359   O     0.95876   0.07359   0.69324   0.00000  Uiso   1.00
O360   O    -0.03546   0.72560   0.69027   0.00000  Uiso   1.00
H361   H     0.97907   0.12152   0.64854   0.00000  Uiso   1.00
H362   H     1.00069   0.10137   0.60859   0.00000  Uiso   1.00
H363   H    -0.00813   0.93969   0.74744   0.00000  Uiso   1.00
H364   H     0.92639   0.98681   0.61811   0.00000  Uiso   1.00
H365   H     0.93090   0.91419   0.63054   0.00000  Uiso   1.00
H366   H     0.96419   0.03938   0.60616   0.00000  Uiso   1.00
H367   H     0.92025   0.78810   0.68164   0.00000  Uiso   1.00
H368   H     0.02134   0.67647   0.72304   0.00000  Uiso   1.00
H369   H    -0.01429   0.67677   0.75400   0.00000  Uiso   1.00
H370   H     0.91115   0.86081   0.67170   0.00000  Uiso   1.00
H371   H     0.03415   0.80968   0.73193   0.00000  Uiso   1.00
H372   H     0.02511   0.88214   0.72197   0.00000  Uiso   1.00
H373   H     0.02052   0.75439   0.76627   0.00000  Uiso   1.00
C374   C     0.97520  -0.00896   0.71183   0.00000  Uiso   1.00
C375   C     0.95950   0.04862   0.66632   0.00000  Uiso   1.00
C376   C     0.97445   0.10222   0.62102   0.00000  Uiso   1.00
C377   C     0.96225   0.92125   0.68974   0.00000  Uiso   1.00
C378   C     0.95782   0.00502   0.67499   0.00000  Uiso   1.00
C379   C     0.97759   0.94961   0.71905   0.00000  Uiso   1.00
C380   C     0.94096   0.97684   0.64632   0.00000  Uiso   1.00
C381   C     0.94312   0.93533   0.65364   0.00000  Uiso   1.00
C382   C     0.94328   0.80842   0.69063   0.00000  Uiso   1.00
C383   C    -0.01716   0.74900   0.71367   0.00000  Uiso   1.00
C384   C     0.01247   0.69042   0.75001   0.00000  Uiso   1.00
C385   C     0.96733   0.87719   0.69638   0.00000  Uiso   1.00
C386   C     0.97154   0.31686   0.69837   0.00000  Uiso   1.00
C387   C     0.02284   0.35701   0.73289   0.00000  Uiso   1.00
H388   H     0.98751   0.52052   0.77294   0.00000  Uiso   1.00
C389   C     0.96019   0.37407   0.74113   0.00000  Uiso   1.00
C390   C     0.94708   0.34120   0.71654   0.00000  Uiso   1.00
N391   N     0.05779   0.53348   0.87324   0.00000  Uiso   1.00
N392   N     0.92371   0.28882   0.64491   0.00000  Uiso   1.00
O393   O     0.03510   0.56451   0.81682   0.00000  Uiso   1.00
O394   O     0.97755   0.25641   0.66278   0.00000  Uiso   1.00
H395   H     0.03329   0.59072   0.88379   0.00000  Uiso   1.00
H396   H     0.04219   0.55889   0.92554   0.00000  Uiso   1.00
H397   H     0.96807   0.45760   0.73746   0.00000  Uiso   1.00
H398   H     0.07796   0.45787   0.84274   0.00000  Uiso   1.00
H399   H     0.05802   0.39441   0.80718   0.00000  Uiso   1.00
H400   H     0.06652   0.50666   0.88735   0.00000  Uiso   1.00
H401   H     0.02924   0.30561   0.69491   0.00000  Uiso   1.00
H402   H     0.93320   0.25782   0.59244   0.00000  Uiso   1.00
H403   H     0.88663   0.27446   0.59250   0.00000  Uiso   1.00
H404   H     0.05219   0.36311   0.73832   0.00000  Uiso   1.00
H405   H     0.91771   0.33537   0.71153   0.00000  Uiso   1.00
H406   H     0.94062   0.39304   0.75383   0.00000  Uiso   1.00
H407   H     0.90681   0.31369   0.64862   0.00000  Uiso   1.00
C408   C     1.00328   0.49329   0.78069   0.00000  Uiso   1.00
C409   C     0.04302   0.53276   0.83361   0.00000  Uiso   1.00
C410   C     0.05348   0.56879   0.89895   0.00000  Uiso   1.00
C411   C     1.01104   0.42101   0.77021   0.00000  Uiso   1.00
C412   C     0.03382   0.49415   0.81119   0.00000  Uiso   1.00
C413   C     0.99193   0.45720   0.76062   0.00000  Uiso   1.00
C414   C     0.05373   0.45815   0.82013   0.00000  Uiso   1.00
C415   C     0.04254   0.42188   0.79959   0.00000  Uiso   1.00
C416   C     0.00968   0.32418   0.70803   0.00000  Uiso   1.00
C417   C     0.95772   0.28519   0.66808   0.00000  Uiso   1.00
C418   C     0.91115   0.26140   0.61121   0.00000  Uiso   1.00
C419   C     0.99807   0.38302   0.74859   0.00000  Uiso   1.00
C420   C     0.94070   0.73642   0.94106   0.00000  Uiso   1.00
C421   C     0.87490   0.75199   0.93194   0.00000  Uiso   1.00
H422   H     0.80174   0.70188   0.05180   0.00000  Uiso   1.00
C423   C     0.91171   0.75943   0.99714   0.00000  Uiso   1.00
C424   C     0.94322   0.74799   0.98144   0.00000  Uiso   1.00
N425   N     0.74207   0.79530   0.07406   0.00000  Uiso   1.00
N426   N     1.00644   0.71515   0.94790   0.00000  Uiso   1.00
O427   O     0.73472   0.72918   0.05719   0.00000  Uiso   1.00
O428   O     0.96450   0.69007   0.89857   0.00000  Uiso   1.00
H429   H     0.70424   0.76518   0.10550   0.00000  Uiso   1.00
H430   H     0.73463   0.80108   0.13386   0.00000  Uiso   1.00
H431   H     0.85554   0.70190   0.01757   0.00000  Uiso   1.00
H432   H     0.77012   0.81950   1.00515   0.00000  Uiso   1.00
H433   H     0.82413   0.81901   0.97015   0.00000  Uiso   1.00
H434   H     0.75624   0.82219   0.07133   0.00000  Uiso   1.00
H435   H     0.90362   0.73140   0.88500   0.00000  Uiso   1.00
H436   H     0.00972   0.65098   0.95143   0.00000  Uiso   1.00
H437   H     0.03968   0.67856   0.98888   0.00000  Uiso   1.00
H438   H     0.84837   0.75191   0.91282   0.00000  Uiso   1.00
H439   H     0.96873   0.74488   1.00186   0.00000  Uiso   1.00
H440   H     0.91381   0.76524   0.02885   0.00000  Uiso   1.00
H441   H     1.01509   0.74096   0.96517   0.00000  Uiso   1.00
C442   C     0.80609   0.72748   0.03383   0.00000  Uiso   1.00
C443   C     0.75102   0.76084   0.05427   0.00000  Uiso   1.00
C444   C     0.71779   0.79498   0.10431   0.00000  Uiso   1.00
C445   C     0.84370   0.76050   0.99159   0.00000  Uiso   1.00
C446   C     0.78199   0.76074   0.03126   0.00000  Uiso   1.00
C447   C     0.83683   0.72754   0.01448   0.00000  Uiso   1.00
C448   C     0.78860   0.79369   1.00793   0.00000  Uiso   1.00
C449   C     0.81919   0.79340   0.98785   0.00000  Uiso   1.00
C450   C     0.90646   0.74016   0.91617   0.00000  Uiso   1.00
C451   C     0.97135   0.71349   0.92710   0.00000  Uiso   1.00
C452   C     0.02786   0.67812   0.95680   0.00000  Uiso   1.00
C453   C     0.87720   0.75984   0.97286   0.00000  Uiso   1.00
C454   C     0.48558   0.50043   0.30170   0.00000  Uiso   1.00
C455   C     0.53021   0.54963   0.28675   0.00000  Uiso   1.00
H456   H     0.53306   0.71106   0.35179   0.00000  Uiso   1.00
C457   C     0.47495   0.57255   0.31136   0.00000  Uiso   1.00
C458   C     0.46375   0.53234   0.31335   0.00000  Uiso   1.00
N459   N     0.60102   0.74603   0.27948   0.00000  Uiso   1.00
N460   N     0.43752   0.44691   0.29716   0.00000  Uiso   1.00
O461   O     0.55630   0.77107   0.31156   0.00000  Uiso   1.00
O462   O     0.49792   0.43146   0.30807   0.00000  Uiso   1.00
H463   H     0.60715   0.80976   0.29250   0.00000  Uiso   1.00
H464   H     0.64898   0.78044   0.29744   0.00000  Uiso   1.00
H465   H     0.50719   0.64292   0.35298   0.00000  Uiso   1.00
H466   H     0.56239   0.68392   0.23613   0.00000  Uiso   1.00
H467   H     0.53654   0.61606   0.23724   0.00000  Uiso   1.00
H468   H     0.61297   0.72028   0.26827   0.00000  Uiso   1.00
H469   H     0.53680   0.48556   0.28031   0.00000  Uiso   1.00
H470   H     0.44764   0.38390   0.28894   0.00000  Uiso   1.00
H471   H     0.40217   0.40081   0.26981   0.00000  Uiso   1.00
H472   H     0.55633   0.55564   0.27694   0.00000  Uiso   1.00
H473   H     0.43830   0.52642   0.32454   0.00000  Uiso   1.00
H474   H     0.45747   0.59653   0.32021   0.00000  Uiso   1.00
H475   H     0.41707   0.46913   0.29215   0.00000  Uiso   1.00
C476   C     0.53357   0.69063   0.32650   0.00000  Uiso   1.00
C477   C     0.56910   0.74210   0.29541   0.00000  Uiso   1.00
C478   C     0.62129   0.78413   0.27937   0.00000  Uiso   1.00
C479   C     0.52045   0.62402   0.29550   0.00000  Uiso   1.00
C480   C     0.55057   0.70230   0.29436   0.00000  Uiso   1.00
C481   C     0.51872   0.65177   0.32712   0.00000  Uiso   1.00
C482   C     0.55066   0.67523   0.26192   0.00000  Uiso   1.00
C483   C     0.53577   0.63648   0.26249   0.00000  Uiso   1.00
C484   C     0.51917   0.50953   0.28899   0.00000  Uiso   1.00
C485   C     0.47413   0.45760   0.30279   0.00000  Uiso   1.00
C486   C     0.42515   0.40474   0.29501   0.00000  Uiso   1.00
C487   C     0.50813   0.58159   0.29767   0.00000  Uiso   1.00
loop_
_geom_bond_atom_site_label_1
_geom_bond_atom_site_label_2
_geom_bond_distance
_geom_bond_site_symmetry_2
_ccdc_geom_bond_type
Pr0    O3      2.262   .     S
Pr0    O4      2.273   .     S
Pr0    O5      2.273   .     S
Pr0    O6      2.316   .     S
Pr0    O7      2.332   .     S
Pr0    O14     2.277   .     S
Pr0    O18     2.333   .     S
Pr1    O2      2.362   .     S
Pr1    O6      2.291   .     S
Pr1    O15     2.386   .     S
Pr1    O16     2.293   .     S
Pr1    O17     2.291   .     S
Pr1    O18     2.319   .     S
Pr1    O19     2.330   .     S
O2     C9      1.299   .     A
O3     C9      1.285   .     A
O4     C10     1.275   .     A
O5     C10     1.277   .     A
O6     C13     1.372   .     S
O7     C13     1.210   .     D
C8     O18     1.380   .     S
C8     O19     1.207   .     D
C8     C410    1.494   .     S
C9     C452    1.492   .     S
C10    C384    1.503   .     S
C11    O16     1.264   .     A
C11    O17     1.264   .     A
C11    C308    1.496   .     S
C12    O14     1.277   .     A
C12    O15     1.297   .     A
C12    C282    1.494   .     S
C13    C112    1.497   .     S
Pr20   O23     2.244   .     S
Pr20   O24     2.276   .     S
Pr20   O26     2.326   .     S
Pr20   O27     2.355   .     S
Pr20   O34     2.268   .     S
Pr20   O38     2.335   .     S
Pr20   O25     2.278   1_554 S
Pr21   O22     2.369   .     S
Pr21   O26     2.266   .     S
Pr21   O35     2.368   .     S
Pr21   O36     2.262   .     S
Pr21   O37     2.263   .     S
Pr21   O38     2.314   .     S
Pr21   O39     2.333   .     S
O22    C29     1.302   .     A
O23    C29     1.279   .     A
O24    C30     1.272   .     A
O25    Pr20    2.278   1_556 S
O25    C30     1.273   1_556 A
O26    C33     1.351   .     S
O27    C33     1.204   .     D
C28    O38     1.378   .     S
C28    O39     1.211   .     D
C28    C248    1.496   .     S
C29    C444    1.491   .     S
C30    O25     1.273   1_554 A
C30    C214    1.493   1_554 S
C31    O36     1.281   .     A
C31    O37     1.280   .     A
C31    C478    1.497   .     S
C32    O34     1.283   .     A
C32    O35     1.298   .     A
C32    C146    1.493   .     S
C33    C104    1.497   .     S
Pr40   O43     2.361   .     S
Pr40   O44     2.286   .     S
Pr40   O45     2.269   .     S
Pr40   O46     2.347   .     S
Pr40   O47     2.355   .     S
Pr40   O54     2.303   .     S
Pr40   O58     2.277   .     S
Pr41   O42     2.302   .     S
Pr41   O46     2.359   .     S
Pr41   O55     2.364   .     S
Pr41   O56     2.256   .     S
Pr41   O57     2.295   .     S
Pr41   O58     2.319   .     S
Pr41   O59     2.397   .     S
O42    C49     1.275   .     A
O43    C49     1.301   .     A
O44    C50     1.275   .     A
O45    C50     1.273   .     A
O46    C53     1.348   .     S
O47    C53     1.198   .     D
C48    O58     1.340   .     S
C48    O59     1.198   .     D
C48    C172    1.495   .     S
C49    C418    1.492   .     S
C50    C350    1.495   .     S
C51    O56     1.284   .     A
C51    O57     1.281   .     A
C51    C206    1.493   .     S
C52    O54     1.287   .     A
C52    O55     1.304   .     A
C52    C240    1.501   .     S
C53    C376    1.492   .     S
Pr60   O63     2.358   .     S
Pr60   O64     2.304   .     S
Pr60   O65     2.287   .     S
Pr60   O66     2.307   .     S
Pr60   O67     2.354   .     S
Pr60   O74     2.289   .     S
Pr60   O78     2.255   .     S
Pr61   O62     2.294   .     S
Pr61   O66     2.258   .     S
Pr61   O75     2.376   .     S
Pr61   O76     2.285   .     S
Pr61   O77     2.300   .     S
Pr61   O78     2.289   .     S
Pr61   O79     2.363   .     S
O62    C69     1.294   .     A
O63    C69     1.304   .     A
O64    C70     1.272   .     A
O65    C70     1.265   .     A
O66    C73     1.344   .     S
O67    C73     1.192   .     D
C68    O78     1.340   .     S
C68    O79     1.194   .     D
C68    C316    1.493   .     S
C69    C342    1.496   .     S
C70    C274    1.494   .     S
C71    O76     1.273   .     A
C71    O77     1.270   .     A
C71    C138    1.496   .     S
C72    O74     1.294   .     A
C72    O75     1.306   .     A
C72    C486    1.499   .     S
C73    C180    1.493   .     S
C80    C84     1.408   .     A
C80    C110    1.405   .     A
C80    C111    1.484   .     S
C81    H98     1.082   .     S
C81    C110    1.398   .     A
C81    C113    1.406   .     A
H82    C102    1.083   .     S
C83    C84     1.397   .     A
C83    H100    1.083   .     S
C83    C113    1.405   .     A
C84    H99     1.082   .     S
N85    H94     1.043   .     S
N85    C103    1.374   .     S
N85    C104    1.464   .     S
N86    H101    1.046   .     S
N86    C111    1.373   .     S
N86    C112    1.463   .     S
O87    C103    1.220   .     D
O88    C111    1.224   .     D
H89    C104    1.110   .     S
H90    C104    1.111   .     S
H91    C107    1.083   .     S
H92    C108    1.082   .     S
H93    C109    1.084   .     S
H95    C110    1.083   .     S
H96    C112    1.113   .     S
H97    C112    1.111   .     S
C102   C106    1.405   .     A
C102   C107    1.396   .     A
C103   C106    1.485   .     S
C105   C109    1.407   .     A
C105   C113    1.485   .     S
C105   C107    1.405   1_556 A
C106   C108    1.407   1_554 A
C107   C105    1.405   1_554 A
C108   C109    1.399   .     A
C108   C106    1.407   1_556 A
C114   C118    1.407   .     A
C114   C144    1.404   .     A
C114   C145    1.486   1_545 S
C115   H132    1.083   .     S
C115   C144    1.395   .     A
C115   C147    1.405   .     A
H116   C136    1.083   .     S
C117   C118    1.400   .     A
C117   H134    1.082   .     S
C117   C147    1.405   .     A
C118   H133    1.082   1_545 S
N119   H128    1.044   .     S
N119   C137    1.374   .     S
N119   C138    1.464   .     S
N120   H135    1.043   .     S
N120   C145    1.374   .     S
N120   C146    1.464   .     S
O121   C137    1.218   .     D
O122   C145    1.220   .     D
H123   C138    1.113   .     S
H124   C138    1.111   .     S
H125   C141    1.083   .     S
H126   C142    1.082   .     S
H127   C143    1.083   .     S
H129   C144    1.083   .     S
H130   C146    1.112   .     S
H131   C146    1.112   .     S
H133   C118    1.082   1_565 S
C136   C140    1.408   .     A
C136   C141    1.403   .     A
C137   C140    1.487   .     S
C139   C141    1.406   .     A
C139   C143    1.404   .     A
C139   C147    1.485   .     S
C140   C142    1.404   .     A
C142   C143    1.394   .     A
C145   C114    1.486   1_565 S
C148   C152    1.408   .     A
C148   C178    1.405   .     A
C148   C179    1.486   .     S
C149   H166    1.083   .     S
C149   C178    1.395   .     A
C149   C181    1.406   .     A
H150   C170    1.083   .     S
C151   C152    1.399   .     A
C151   H168    1.083   .     S
C151   C181    1.406   .     A
C152   H167    1.081   .     S
N153   H162    1.044   .     S
N153   C171    1.375   .     S
N153   C172    1.463   .     S
N154   H169    1.044   .     S
N154   C179    1.374   .     S
N154   C180    1.462   .     S
O155   C171    1.220   .     D
O156   C179    1.223   .     D
H157   C172    1.111   .     S
H158   C172    1.112   .     S
H159   C175    1.083   .     S
H160   C176    1.082   .     S
H161   C177    1.083   .     S
H163   C178    1.083   .     S
H164   C180    1.111   .     S
H165   C180    1.111   .     S
C170   C174    1.404   .     A
C170   C175    1.396   .     A
C171   C174    1.482   .     S
C173   C175    1.406   .     A
C173   C177    1.406   .     A
C173   C181    1.486   .     S
C174   C176    1.405   .     A
C176   C177    1.399   .     A
C182   C186    1.413   .     A
C182   C212    1.407   .     A
C182   C213    1.492   .     S
C183   H200    1.084   .     S
C183   C212    1.392   .     A
C183   C215    1.401   .     A
H184   C204    1.083   .     S
C185   C186    1.402   .     A
C185   H202    1.084   .     S
C185   C215    1.403   .     A
C186   H201    1.080   .     S
N187   H196    1.045   .     S
N187   C205    1.371   .     S
N187   C206    1.462   .     S
N188   H203    1.043   .     S
N188   C213    1.374   .     S
N188   C214    1.467   .     S
O189   C205    1.222   .     D
O190   C213    1.222   .     D
H191   C206    1.113   .     S
H192   C206    1.112   .     S
H193   C209    1.083   .     S
H194   C210    1.081   .     S
H195   C211    1.084   1_565 S
H197   C212    1.082   .     S
H198   C214    1.112   .     S
H199   C214    1.110   .     S
C204   C208    1.408   .     A
C204   C209    1.400   .     A
C205   C208    1.483   .     S
C207   C209    1.403   .     A
C207   C211    1.402   .     A
C207   C215    1.477   1_545 S
C208   C210    1.406   .     A
C210   C211    1.393   .     A
C211   H195    1.084   1_545 S
C214   C30     1.493   1_556 S
C215   C207    1.477   1_565 S
C216   C220    1.407   .     A
C216   C246    1.408   .     A
C216   C247    1.490   .     S
C217   H234    1.083   .     S
C217   C246    1.400   .     A
C217   C249    1.407   .     A
H218   C238    1.083   .     S
C219   C220    1.395   .     A
C219   H236    1.082   .     S
C219   C249    1.405   .     A
C220   H235    1.081   .     S
N221   H230    1.045   .     S
N221   C239    1.373   .     S
N221   C240    1.465   .     S
N222   H237    1.043   .     S
N222   C247    1.376   .     S
N222   C248    1.464   .     S
O223   C239    1.221   .     D
O224   C247    1.220   .     D
H225   C240    1.111   .     S
H226   C240    1.111   .     S
H227   C243    1.082   .     S
H228   C244    1.083   .     S
H229   C245    1.082   .     S
H231   C246    1.083   .     S
H232   C248    1.111   .     S
H233   C248    1.109   .     S
C238   C242    1.403   .     A
C238   C243    1.396   1_545 A
C239   C242    1.481   .     S
C241   C243    1.407   .     A
C241   C245    1.407   .     A
C241   C249    1.489   .     S
C242   C244    1.406   .     A
C243   C238    1.396   1_565 A
C244   C245    1.398   1_545 A
C245   C244    1.398   1_565 A
C250   C254    1.407   .     A
C250   C280    1.402   .     A
C250   C281    1.480   .     S
C251   H268    1.082   .     S
C251   C280    1.391   .     A
C251   C283    1.404   .     A
H252   C272    1.083   .     S
C253   C254    1.406   .     A
C253   H270    1.083   .     S
C253   C283    1.408   .     A
C254   H269    1.082   .     S
N255   H264    1.043   .     S
N255   C273    1.376   .     S
N255   C274    1.467   .     S
N256   H271    1.046   .     S
N256   C281    1.373   .     S
N256   C282    1.466   .     S
O257   C273    1.218   .     D
O258   C281    1.223   .     D
H259   C274    1.114   .     S
H260   C274    1.111   .     S
H261   C277    1.083   .     S
H262   C278    1.079   .     S
H263   C279    1.082   .     S
H265   C280    1.083   .     S
H266   C282    1.110   .     S
H267   C282    1.110   .     S
C272   C276    1.411   .     A
C272   C277    1.401   .     A
C273   C276    1.495   .     S
C275   C277    1.403   .     A
C275   C279    1.404   .     A
C275   C283    1.487   .     S
C276   C278    1.406   .     A
C278   C279    1.397   .     A
C284   C288    1.405   .     A
C284   C314    1.404   .     A
C284   C315    1.484   .     S
C285   H302    1.082   .     S
C285   C314    1.398   .     A
C285   C317    1.406   .     A
H286   C306    1.084   .     S
C287   C288    1.400   .     A
C287   H304    1.083   .     S
C287   C317    1.407   .     A
C288   H303    1.082   .     S
N289   H298    1.045   .     S
N289   C308    1.464   .     S
N289   C307    1.438   1_556 S
N290   H305    1.045   .     S
N290   C315    1.374   .     S
N290   C316    1.467   .     S
O291   C307    1.221   .     D
O292   C315    1.220   .     D
H293   C308    1.110   .     S
H294   C308    1.110   .     S
H295   C311    1.083   .     S
H296   C312    1.082   .     S
H297   C313    1.083   .     S
H299   C314    1.083   .     S
H300   C316    1.111   .     S
H301   C316    1.111   .     S
C306   C310    1.406   .     A
C306   C311    1.398   .     A
C307   C310    1.486   .     S
C307   N289    1.438   1_554 S
C309   C311    1.407   .     A
C309   C313    1.406   .     A
C309   C317    1.489   .     S
C310   C312    1.407   .     A
C312   C313    1.398   .     A
C318   C322    1.409   .     A
C318   C348    1.408   .     A
C318   C349    1.492   .     S
C319   H336    1.083   .     S
C319   C348    1.396   .     A
C319   C351    1.405   .     A
H320   C340    1.083   .     S
C321   C322    1.401   .     A
C321   H338    1.083   .     S
C321   C351    1.407   .     A
C322   H337    1.080   .     S
N323   H332    1.043   .     S
N323   C341    1.378   .     S
N323   C342    1.465   .     S
N324   H339    1.043   .     S
N324   C349    1.376   .     S
N324   C350    1.466   1_455 S
O325   C341    1.216   .     D
O326   C349    1.221   .     D
H327   C342    1.112   .     S
H328   C342    1.112   .     S
H329   C345    1.082   .     S
H330   C346    1.084   .     S
H331   C347    1.082   .     S
H333   C348    1.084   .     S
H334   C350    1.113   .     S
H335   C350    1.111   .     S
C340   C344    1.404   .     A
C340   C345    1.398   .     A
C341   C344    1.482   .     S
C343   C345    1.406   .     A
C343   C347    1.409   .     A
C343   C351    1.490   .     S
C344   C346    1.402   .     A
C346   C347    1.399   .     A
C350   N324    1.466   1_655 S
C352   C356    1.405   .     A
C352   C383    1.485   .     S
C352   C382    1.406   1_455 A
C353   H370    1.083   .     S
C353   C382    1.399   .     A
C353   C385    1.405   .     A
H354   C374    1.083   1_455 S
C355   C356    1.398   .     A
C355   H372    1.083   .     S
C355   C385    1.406   1_455 A
C356   H371    1.082   .     S
N357   H366    1.045   .     S
N357   C375    1.375   .     S
N357   C376    1.464   .     S
N358   H373    1.044   .     S
N358   C383    1.374   .     S
N358   C384    1.468   .     S
O359   C375    1.221   .     D
O360   C383    1.221   .     D
H361   C376    1.111   .     S
H362   C376    1.110   .     S
H363   C379    1.083   1_455 S
H364   C380    1.082   .     S
H365   C381    1.083   .     S
H367   C382    1.083   .     S
H368   C384    1.110   .     S
H369   C384    1.111   .     S
C374   C378    1.404   .     A
C374   H354    1.083   1_655 S
C374   C379    1.396   1_545 A
C375   C378    1.481   .     S
C377   C379    1.405   .     A
C377   C381    1.407   .     A
C377   C385    1.485   .     S
C378   C380    1.405   1_545 A
C379   H363    1.083   1_655 S
C379   C374    1.396   1_565 A
C380   C381    1.399   .     A
C380   C378    1.405   1_565 A
C382   C352    1.406   1_655 A
C385   C355    1.406   1_655 A
C386   C390    1.405   .     A
C386   C417    1.484   .     S
C386   C416    1.407   1_655 A
C387   H404    1.083   .     S
C387   C416    1.399   .     A
C387   C419    1.403   1_455 A
H388   C408    1.083   .     S
C389   C390    1.395   .     A
C389   H406    1.083   .     S
C389   C419    1.404   .     A
C390   H405    1.081   .     S
N391   H400    1.044   .     S
N391   C409    1.374   .     S
N391   C410    1.463   .     S
N392   H407    1.043   .     S
N392   C417    1.375   .     S
N392   C418    1.462   .     S
O393   C409    1.220   .     D
O394   C417    1.221   .     D
H395   C410    1.111   .     S
H396   C410    1.110   .     S
H397   C413    1.083   .     S
H398   C414    1.082   .     S
H399   C415    1.083   .     S
H401   C416    1.083   .     S
H402   C418    1.111   .     S
H403   C418    1.110   .     S
C408   C413    1.392   .     A
C408   C412    1.404   1_655 A
C409   C412    1.482   .     S
C411   C413    1.402   .     A
C411   C419    1.481   .     S
C411   C415    1.406   1_655 A
C412   C414    1.407   .     A
C412   C408    1.404   1_455 A
C414   C415    1.402   .     A
C415   C411    1.406   1_455 A
C416   C386    1.407   1_455 A
C419   C387    1.403   1_655 A
C420   C424    1.408   .     A
C420   C450    1.408   .     A
C420   C451    1.484   .     S
C421   H438    1.084   .     S
C421   C450    1.400   .     A
C421   C453    1.401   .     A
H422   C442    1.083   .     S
C423   C424    1.394   .     A
C423   C453    1.400   .     A
C423   H440    1.083   1_556 S
C424   H439    1.082   .     S
N425   H434    1.045   .     S
N425   C443    1.373   .     S
N425   C444    1.464   .     S
N426   H441    1.045   .     S
N426   C451    1.370   .     S
N426   C452    1.463   1_655 S
O427   C443    1.221   .     D
O428   C451    1.222   .     D
H429   C444    1.109   .     S
H430   C444    1.110   .     S
H431   C447    1.084   .     S
H432   C448    1.083   .     S
H433   C449    1.083   .     S
H435   C450    1.083   .     S
H436   C452    1.113   .     S
H437   C452    1.111   .     S
H440   C423    1.083   1_554 S
C442   C446    1.403   .     A
C442   C447    1.392   .     A
C443   C446    1.477   .     S
C445   C449    1.402   .     A
C445   C453    1.470   .     S
C445   C447    1.402   1_556 A
C446   C448    1.408   1_554 A
C447   C445    1.402   1_554 A
C448   C449    1.402   .     A
C448   C446    1.408   1_556 A
C452   N426    1.463   1_455 S
C454   C458    1.407   .     A
C454   C484    1.405   .     A
C454   C485    1.481   .     S
C455   H472    1.084   .     S
C455   C484    1.394   .     A
C455   C487    1.405   .     A
H456   C476    1.083   .     S
C457   C458    1.398   .     A
C457   H474    1.083   .     S
C457   C487    1.406   .     A
C458   H473    1.082   .     S
N459   H468    1.045   .     S
N459   C477    1.374   .     S
N459   C478    1.465   .     S
N460   H475    1.044   .     S
N460   C485    1.373   .     S
N460   C486    1.464   .     S
O461   C477    1.220   .     D
O462   C485    1.221   .     D
H463   C478    1.111   .     S
H464   C478    1.110   .     S
H465   C481    1.082   .     S
H466   C482    1.083   .     S
H467   C483    1.083   .     S
H469   C484    1.084   .     S
H470   C486    1.112   .     S
H471   C486    1.111   .     S
C476   C480    1.404   .     A
C476   C481    1.399   .     A
C477   C480    1.480   .     S
C479   C481    1.405   .     A
C479   C483    1.405   .     A
C479   C487    1.482   .     S
C480   C482    1.404   .     A
C482   C483    1.396   .     A
