data_lcy+N173+E225
_audit_creation_date              2025-01-21
_audit_creation_method            'Materials Studio'
_symmetry_space_group_name_H-M    'P1'
_symmetry_Int_Tables_number       1
_symmetry_cell_setting            triclinic
loop_
_symmetry_equiv_pos_as_xyz
  x,y,z
_cell_length_a                    33.6488
_cell_length_b                    32.6388
_cell_length_c                    32.7659
_cell_angle_alpha                 93.1637
_cell_angle_beta                  86.2302
_cell_angle_gamma                 101.5611
loop_
_atom_site_label
_atom_site_type_symbol
_atom_site_fract_x
_atom_site_fract_y
_atom_site_fract_z
_atom_site_U_iso_or_equiv
_atom_site_adp_type
_atom_site_occupancy
Gd0    Gd    0.13323   0.64938   0.83833   0.00000  Uiso   1.00
Gd1    Gd    0.13761   0.60465   0.88877   0.00000  Uiso   1.00
O2     O     0.08712   0.55831   0.86276   0.00000  Uiso   1.00
O3     O     0.08630   0.59836   0.81129   0.00000  Uiso   1.00
O4     O     0.17991   0.62355   0.80074   0.00000  Uiso   1.00
O5     O     0.18043   0.57652   0.84597   0.00000  Uiso   1.00
O6     O     0.08894   0.69304   0.84148   0.00000  Uiso   1.00
O7     O     0.12673   0.68990   0.78784   0.00000  Uiso   1.00
O8     O     0.18261   0.69855   0.86161   0.00000  Uiso   1.00
C9     C     0.09825   0.70526   0.80528   0.00000  Uiso   1.00
O10    O     0.18834   0.65539   0.90982   0.00000  Uiso   1.00
O11    O     0.08625   0.67280   0.88132   0.00000  Uiso   1.00
C12    C     0.19117   0.59110   0.81094   0.00000  Uiso   1.00
O13    O     0.09293   0.63063   0.92992   0.00000  Uiso   1.00
O14    O     0.14711   0.55990   0.93473   0.00000  Uiso   1.00
O15    O     0.18522   0.61940   0.93649   0.00000  Uiso   1.00
C16    C     0.07449   0.56353   0.82821   0.00000  Uiso   1.00
C17    C     0.17703   0.58309   0.95093   0.00000  Uiso   1.00
C18    C     0.07570   0.65823   0.91685   0.00000  Uiso   1.00
C19    C     0.20128   0.68922   0.89107   0.00000  Uiso   1.00
Gd20   Gd    0.66208   0.82584   0.10728   0.00000  Uiso   1.00
Gd21   Gd    0.60511   0.92044   0.13351   0.00000  Uiso   1.00
O22    O     0.59143   0.88399   0.07405   0.00000  Uiso   1.00
O23    O     0.59664   0.81869   0.08734   0.00000  Uiso   1.00
O24    O     0.59638   0.80913   0.12944   0.00000  Uiso   1.00
O25    O     0.58741   0.86260   0.17327   0.00000  Uiso   1.00
O26    O     0.72620   0.82683   0.09032   0.00000  Uiso   1.00
O27    O     0.67966   0.78646   0.05497   0.00000  Uiso   1.00
O28    O     0.66793   0.85906   0.16918   0.00000  Uiso   1.00
C29    C     0.71775   0.80014   0.06029   0.00000  Uiso   1.00
O30    O     0.66962   0.92136   0.14769   0.00000  Uiso   1.00
O31    O     0.66952   0.87736   0.06332   0.00000  Uiso   1.00
C32    C     0.58130   0.82329   0.16315   0.00000  Uiso   1.00
O33    O     0.67036   0.93136   0.10694   0.00000  Uiso   1.00
O34    O     0.54701   0.93785   0.15525   0.00000  Uiso   1.00
O35    O     0.60198   0.96295   0.18731   0.00000  Uiso   1.00
C36    C     0.57889   0.84476   0.07070   0.00000  Uiso   1.00
C37    C     0.56419   0.96275   0.18371   0.00000  Uiso   1.00
C38    C     0.67778   0.91651   0.07077   0.00000  Uiso   1.00
C39    C     0.67407   0.89812   0.17611   0.00000  Uiso   1.00
Gd40   Gd    0.90569   0.07934   0.62425   0.00000  Uiso   1.00
Gd41   Gd    0.84087   0.15083   0.62237   0.00000  Uiso   1.00
O42    O     0.87197   0.19237   0.67157   0.00000  Uiso   1.00
O43    O     0.90361   0.14152   0.65948   0.00000  Uiso   1.00
O44    O     0.90417   0.14315   0.61025   0.00000  Uiso   1.00
O45    O     0.88370   0.18467   0.57318   0.00000  Uiso   1.00
O46    O     0.91545   0.01717   0.63804   0.00000  Uiso   1.00
O47    O     0.94512   0.07159   0.67365   0.00000  Uiso   1.00
O48    O     0.86601   0.06533   0.57041   0.00000  Uiso   1.00
C49    C     0.93821   0.03171   0.66736   0.00000  Uiso   1.00
O50    O     0.81636   0.10357   0.57381   0.00000  Uiso   1.00
O51    O     0.84957   0.06377   0.66739   0.00000  Uiso   1.00
C52    C     0.91115   0.16420   0.57836   0.00000  Uiso   1.00
O53    O     0.80700   0.11004   0.66991   0.00000  Uiso   1.00
O54    O     0.79470   0.19047   0.61888   0.00000  Uiso   1.00
O55    O     0.78786   0.13505   0.58127   0.00000  Uiso   1.00
C56    C     0.90117   0.17656   0.67888   0.00000  Uiso   1.00
C57    C     0.77401   0.16766   0.59251   0.00000  Uiso   1.00
C58    C     0.81800   0.07763   0.68222   0.00000  Uiso   1.00
C59    C     0.83451   0.07544   0.55698   0.00000  Uiso   1.00
Gd60   Gd    0.34811   0.38494   0.35341   0.00000  Uiso   1.00
Gd61   Gd    0.39595   0.37633   0.42387   0.00000  Uiso   1.00
O62    O     0.36641   0.42808   0.44793   0.00000  Uiso   1.00
O63    O     0.32873   0.43611   0.39502   0.00000  Uiso   1.00
O64    O     0.32992   0.35063   0.40812   0.00000  Uiso   1.00
O65    O     0.34903   0.33036   0.46110   0.00000  Uiso   1.00
O66    O     0.34439   0.40950   0.29236   0.00000  Uiso   1.00
O67    O     0.30430   0.42616   0.33988   0.00000  Uiso   1.00
O68    O     0.38159   0.33442   0.32891   0.00000  Uiso   1.00
C69    C     0.31572   0.42837   0.30206   0.00000  Uiso   1.00
O70    O     0.41445   0.32435   0.38440   0.00000  Uiso   1.00
O71    O     0.40318   0.43407   0.34439   0.00000  Uiso   1.00
C72    C     0.31921   0.33075   0.43974   0.00000  Uiso   1.00
O73    O     0.44316   0.42406   0.39216   0.00000  Uiso   1.00
O74    O     0.44261   0.37795   0.47004   0.00000  Uiso   1.00
O75    O     0.44031   0.33316   0.42025   0.00000  Uiso   1.00
C76    C     0.34139   0.44604   0.43140   0.00000  Uiso   1.00
C77    C     0.45864   0.34959   0.45172   0.00000  Uiso   1.00
C78    C     0.43631   0.44383   0.36197   0.00000  Uiso   1.00
C79    C     0.40451   0.31494   0.34727   0.00000  Uiso   1.00
C80    C     0.53844   0.82912   0.05595   0.00000  Uiso   1.00
C81    C     0.53260   0.81717   0.01482   0.00000  Uiso   1.00
C82    C     0.49355   0.79965   1.00233   0.00000  Uiso   1.00
C83    C     0.46012   0.79284   0.03158   0.00000  Uiso   1.00
C84    C     0.46652   0.80650   0.07221   0.00000  Uiso   1.00
C85    C     0.50517   0.82462   0.08435   0.00000  Uiso   1.00
C86    C     0.41064   0.75527   0.98461   0.00000  Uiso   1.00
H87    H     0.22442   0.73188   0.96141   0.00000  Uiso   1.00
H88    H     0.29403   0.74938   0.98326   0.00000  Uiso   1.00
H89    H     0.33758   0.70742   0.86444   0.00000  Uiso   1.00
H90    H     0.26801   0.69403   0.84173   0.00000  Uiso   1.00
H91    H     0.34956   0.73786   1.00312   0.00000  Uiso   1.00
O92    O     0.36150   0.72888   0.93714   0.00000  Uiso   1.00
O93    O     0.42010   0.77302   0.02349   0.00000  Uiso   1.00
C94    C     0.24151   0.71243   0.90009   0.00000  Uiso   1.00
C95    C     0.24940   0.72773   0.94001   0.00000  Uiso   1.00
C96    C     0.28913   0.73560   0.95290   0.00000  Uiso   1.00
C97    C     0.32109   0.72550   0.92643   0.00000  Uiso   1.00
C98    C     0.31307   0.71298   0.88582   0.00000  Uiso   1.00
C99    C     0.27374   0.70676   0.87255   0.00000  Uiso   1.00
C100   C     0.37188   0.74004   0.97752   0.00000  Uiso   1.00
H101   H     0.49056   0.79177   0.97014   0.00000  Uiso   1.00
H102   H     0.44120   0.80236   0.09476   0.00000  Uiso   1.00
H103   H     0.55829   0.82101   0.99267   0.00000  Uiso   1.00
H104   H     0.43309   0.75488   0.95947   0.00000  Uiso   1.00
H105   H     0.50926   0.83428   0.11621   0.00000  Uiso   1.00
C106   C     0.42063   0.28069   0.32472   0.00000  Uiso   1.00
C107   C     0.43414   0.25018   0.34590   0.00000  Uiso   1.00
C108   C     0.45066   0.21867   0.32450   0.00000  Uiso   1.00
C109   C     0.45357   0.21673   0.28130   0.00000  Uiso   1.00
C110   C     0.44030   0.24733   0.26040   0.00000  Uiso   1.00
C111   C     0.42366   0.27876   0.28175   0.00000  Uiso   1.00
C112   C     0.47074   0.14868   0.27500   0.00000  Uiso   1.00
H113   H     0.51798   0.01291   0.15614   0.00000  Uiso   1.00
H114   H     0.48967   0.06778   0.19509   0.00000  Uiso   1.00
H115   H     0.53684   0.03463   0.30522   0.00000  Uiso   1.00
H116   H     0.56636   0.98035   0.26577   0.00000  Uiso   1.00
H117   H     0.51643   0.13381   0.23369   0.00000  Uiso   1.00
O118   O     0.49411   0.08512   0.27705   0.00000  Uiso   1.00
O119   O     0.47252   0.18767   0.25811   0.00000  Uiso   1.00
C120   C     0.54342   0.99205   0.20832   0.00000  Uiso   1.00
C121   C     0.52170   0.01704   0.18879   0.00000  Uiso   1.00
C122   C     0.50626   0.04886   0.21088   0.00000  Uiso   1.00
C123   C     0.51184   0.05574   0.25313   0.00000  Uiso   1.00
C124   C     0.53276   0.03005   0.27267   0.00000  Uiso   1.00
C125   C     0.54919   0.99899   0.25033   0.00000  Uiso   1.00
C126   C     0.49510   0.12352   0.25926   0.00000  Uiso   1.00
H127   H     0.46203   0.19667   0.34190   0.00000  Uiso   1.00
H128   H     0.44324   0.24691   0.22729   0.00000  Uiso   1.00
H129   H     0.43224   0.25078   0.37907   0.00000  Uiso   1.00
H130   H     0.44900   0.13785   0.30003   0.00000  Uiso   1.00
H131   H     0.41420   0.30225   0.26465   0.00000  Uiso   1.00
C132   C     0.73863   0.17971   0.57634   0.00000  Uiso   1.00
C133   C     0.74383   0.21860   0.55856   0.00000  Uiso   1.00
C134   C     0.71026   0.23467   0.54920   0.00000  Uiso   1.00
C135   C     0.67058   0.21199   0.55769   0.00000  Uiso   1.00
C136   C     0.66556   0.17287   0.57524   0.00000  Uiso   1.00
C137   C     0.69932   0.15657   0.58428   0.00000  Uiso   1.00
C138   C     0.63744   0.25751   0.52267   0.00000  Uiso   1.00
H139   H     0.46652   0.28375   0.49516   0.00000  Uiso   1.00
H140   H     0.52943   0.26279   0.51028   0.00000  Uiso   1.00
H141   H     0.59897   0.37006   0.44911   0.00000  Uiso   1.00
H142   H     0.53525   0.39007   0.43260   0.00000  Uiso   1.00
H143   H     0.58475   0.27632   0.54690   0.00000  Uiso   1.00
O144   O     0.60699   0.30513   0.48921   0.00000  Uiso   1.00
O145   O     0.63578   0.22888   0.55356   0.00000  Uiso   1.00
C146   C     0.49640   0.33880   0.46366   0.00000  Uiso   1.00
C147   C     0.49534   0.30310   0.48569   0.00000  Uiso   1.00
C148   C     0.53152   0.29160   0.49483   0.00000  Uiso   1.00
C149   C     0.56955   0.31626   0.48268   0.00000  Uiso   1.00
C150   C     0.57020   0.35160   0.46002   0.00000  Uiso   1.00
C151   C     0.53398   0.36298   0.45072   0.00000  Uiso   1.00
C152   C     0.60785   0.27920   0.52188   0.00000  Uiso   1.00
H153   H     0.71554   0.26564   0.53725   0.00000  Uiso   1.00
H154   H     0.63528   0.15560   0.58301   0.00000  Uiso   1.00
H155   H     0.77403   0.23722   0.55313   0.00000  Uiso   1.00
H156   H     0.66096   0.26061   0.49802   0.00000  Uiso   1.00
H157   H     0.69471   0.12716   0.59941   0.00000  Uiso   1.00
C158   C     0.79493   0.05555   0.71717   0.00000  Uiso   1.00
C159   C     0.77608   0.07771   0.74821   0.00000  Uiso   1.00
C160   C     0.75890   0.05806   0.78394   0.00000  Uiso   1.00
C161   C     0.76033   0.01585   0.78922   0.00000  Uiso   1.00
C162   C     0.77749   0.99339   0.75745   0.00000  Uiso   1.00
C163   C     0.79520   0.01311   0.72205   0.00000  Uiso   1.00
C164   C     0.74746   0.01649   0.86211   0.00000  Uiso   1.00
H165   H     0.71623   0.89424   1.00031   0.00000  Uiso   1.00
H166   H     0.74146   0.93675   0.94216   0.00000  Uiso   1.00
H167   H     0.70386   0.04331   1.00526   0.00000  Uiso   1.00
H168   H     0.67918   1.00056   0.06489   0.00000  Uiso   1.00
H169   H     0.71199   0.96629   0.89244   0.00000  Uiso   1.00
O170   O     0.73552   0.01815   0.93462   0.00000  Uiso   1.00
O171   O     0.74288   0.99438   0.82408   0.00000  Uiso   1.00
C172   C     0.69536   0.94398   0.03703   0.00000  Uiso   1.00
C173   C     0.71317   0.92672   1.00190   0.00000  Uiso   1.00
C174   C     0.72718   0.95097   0.96828   0.00000  Uiso   1.00
C175   C     0.72268   0.99296   0.96845   0.00000  Uiso   1.00
C176   C     0.70659   0.01076   1.00419   0.00000  Uiso   1.00
C177   C     0.69279   0.98646   0.03821   0.00000  Uiso   1.00
C178   C     0.73032   0.99765   0.89583   0.00000  Uiso   1.00
H179   H     0.74449   0.07579   0.80730   0.00000  Uiso   1.00
H180   H     0.77796   0.96067   0.76065   0.00000  Uiso   1.00
H181   H     0.77588   0.11058   0.74549   0.00000  Uiso   1.00
H182   H     0.76610   0.04774   0.86500   0.00000  Uiso   1.00
H183   H     0.80951  -0.00472   0.69863   0.00000  Uiso   1.00
C184   C     0.82160   0.05699   0.51712   0.00000  Uiso   1.00
C185   C     0.79055   0.02152   0.51307   0.00000  Uiso   1.00
C186   C     0.77902   1.00559   0.47394   0.00000  Uiso   1.00
C187   C     0.79856   0.02557   0.43861   0.00000  Uiso   1.00
C188   C     0.83073   0.05959   0.44346   0.00000  Uiso   1.00
C189   C     0.84210   0.07528   0.48219   0.00000  Uiso   1.00
C190   C     0.75218   0.98624   0.38926   0.00000  Uiso   1.00
H191   H     0.74056   0.95298   0.20084   0.00000  Uiso   1.00
H192   H     0.75631   0.97681   0.27030   0.00000  Uiso   1.00
H193   H     0.63920   0.90825   0.31465   0.00000  Uiso   1.00
H194   H     0.62501   0.88216   0.24444   0.00000  Uiso   1.00
H195   H     0.75716   1.00573   0.32965   0.00000  Uiso   1.00
O196   O     0.70527   0.95463   0.34043   0.00000  Uiso   1.00
O197   O     0.78813   0.01451   0.39801   0.00000  Uiso   1.00
C198   C     0.68182   0.91575   0.21765   0.00000  Uiso   1.00
C199   C     0.71817   0.94351   0.22558   0.00000  Uiso   1.00
C200   C     0.72682   0.95748   0.26578   0.00000  Uiso   1.00
C201   C     0.69824   0.94490   0.29869   0.00000  Uiso   1.00
C202   C     0.66140   0.91833   0.28996   0.00000  Uiso   1.00
C203   C     0.65338   0.90343   0.25001   0.00000  Uiso   1.00
C204   C     0.74003   0.98383   0.35111   0.00000  Uiso   1.00
H205   H     0.75530   0.97797   0.47211   0.00000  Uiso   1.00
H206   H     0.84655   0.07457   0.41673   0.00000  Uiso   1.00
H207   H     0.77539   1.00627   0.53999   0.00000  Uiso   1.00
H208   H     0.73452   0.96575   0.41161   0.00000  Uiso   1.00
H209   H     0.86676   0.10211   0.48490   0.00000  Uiso   1.00
C210   C     0.32697   0.47830   0.45805   0.00000  Uiso   1.00
C211   C     0.28864   0.46825   0.47857   0.00000  Uiso   1.00
C212   C     0.28099   0.48779   0.51665   0.00000  Uiso   1.00
C213   C     0.31158   0.51861   0.53435   0.00000  Uiso   1.00
C214   C     0.34870   0.53041   0.51224   0.00000  Uiso   1.00
C215   C     0.35644   0.51051   0.47463   0.00000  Uiso   1.00
C216   C     0.27130   0.52883   0.59649   0.00000  Uiso   1.00
H217   H     0.26368   0.61561   0.76825   0.00000  Uiso   1.00
H218   H     0.28054   0.58795   0.69977   0.00000  Uiso   1.00
H219   H     0.17326   0.49055   0.70954   0.00000  Uiso   1.00
H220   H     0.15726   0.51764   0.77833   0.00000  Uiso   1.00
H221   H     0.29710   0.53685   0.65359   0.00000  Uiso   1.00
O222   O     0.23105   0.52366   0.65813   0.00000  Uiso   1.00
O223   O     0.30931   0.53450   0.57515   0.00000  Uiso   1.00
C224   C     0.21030   0.56739   0.77900   0.00000  Uiso   1.00
C225   C     0.24540   0.58663   0.75663   0.00000  Uiso   1.00
C226   C     0.25482   0.57080   0.71736   0.00000  Uiso   1.00
C227   C     0.22858   0.53591   0.69983   0.00000  Uiso   1.00
C228   C     0.19460   0.51612   0.72315   0.00000  Uiso   1.00
C229   C     0.18579   0.53127   0.76256   0.00000  Uiso   1.00
C230   C     0.26927   0.53122   0.63728   0.00000  Uiso   1.00
H231   H     0.25240   0.47616   0.53305   0.00000  Uiso   1.00
H232   H     0.37285   0.55299   0.52584   0.00000  Uiso   1.00
H233   H     0.26620   0.44215   0.46740   0.00000  Uiso   1.00
H234   H     0.24331   0.52367   0.58059   0.00000  Uiso   1.00
H235   H     0.38692   0.51733   0.46051   0.00000  Uiso   1.00
C236   C     0.20109   0.56749   0.98072   0.00000  Uiso   1.00
C237   C     0.21896   0.59290   0.01327   0.00000  Uiso   1.00
C238   C     0.23981   0.57599   0.04187   0.00000  Uiso   1.00
C239   C     0.24349   0.53365   0.03786   0.00000  Uiso   1.00
C240   C     0.22772   0.50925   1.00411   0.00000  Uiso   1.00
C241   C     0.20615   0.52571   0.97619   0.00000  Uiso   1.00
C242   C     0.25260   0.52218   0.10715   0.00000  Uiso   1.00
H243   H     0.30242   0.40022   0.22450   0.00000  Uiso   1.00
H244   H     0.27891   0.43534   0.16985   0.00000  Uiso   1.00
H245   H     0.26635   0.53919   0.25359   0.00000  Uiso   1.00
H246   H     0.28866   0.50284   0.30941   0.00000  Uiso   1.00
H247   H     0.29382   0.48862   0.12722   0.00000  Uiso   1.00
O248   O     0.25796   0.51305   0.17744   0.00000  Uiso   1.00
O249   O     0.26402   0.51541   0.06573   0.00000  Uiso   1.00
C250   C     0.29778   0.44912   0.27097   0.00000  Uiso   1.00
C251   C     0.29489   0.43075   0.23116   0.00000  Uiso   1.00
C252   C     0.28190   0.45119   0.19970   0.00000  Uiso   1.00
C253   C     0.27236   0.49113   0.20731   0.00000  Uiso   1.00
C254   C     0.27417   0.50879   0.24731   0.00000  Uiso   1.00
C255   C     0.28660   0.48801   0.27905   0.00000  Uiso   1.00
C256   C     0.27000   0.50596   0.13618   0.00000  Uiso   1.00
H257   H     0.25313   0.59577   0.06702   0.00000  Uiso   1.00
H258   H     0.23141   0.47703   1.00007   0.00000  Uiso   1.00
H259   H     0.21601   0.62532   0.01709   0.00000  Uiso   1.00
H260   H     0.22863   0.53935   0.11622   0.00000  Uiso   1.00
H261   H     0.19369   0.50582   0.95066   0.00000  Uiso   1.00
C262   C     0.27595   0.31148   0.44842   0.00000  Uiso   1.00
C263   C     0.26302   0.27632   0.47228   0.00000  Uiso   1.00
C264   C     0.22167   0.25664   0.47490   0.00000  Uiso   1.00
C265   C     0.19264   0.27271   0.45437   0.00000  Uiso   1.00
C266   C     0.20605   0.30778   0.43104   0.00000  Uiso   1.00
C267   C     0.24685   0.32708   0.42822   0.00000  Uiso   1.00
C268   C     0.13228   0.22891   0.48498   0.00000  Uiso   1.00
H269   H     0.94838   0.22467   0.52538   0.00000  Uiso   1.00
H270   H     0.01952   0.23619   0.49925   0.00000  Uiso   1.00
H271   H     0.03280   0.12145   0.55118   0.00000  Uiso   1.00
H272   H     0.96232   0.11032   0.57763   0.00000  Uiso   1.00
H273   H     0.07488   0.22119   0.46077   0.00000  Uiso   1.00
O274   O     0.07417   0.18681   0.51599   0.00000  Uiso   1.00
O275   O     0.15109   0.25432   0.45327   0.00000  Uiso   1.00
C276   C     0.94967   0.16639   0.55324   0.00000  Uiso   1.00
C277   C     0.96610   0.20111   0.52965   0.00000  Uiso   1.00
C278   C     0.00694   0.20764   0.51472   0.00000  Uiso   1.00
C279   C     0.03163   0.17904   0.52289   0.00000  Uiso   1.00
C280   C     0.01423   0.14343   0.54426   0.00000  Uiso   1.00
C281   C     0.97387   0.13708   0.55920   0.00000  Uiso   1.00
C282   C     0.09230   0.21372   0.48519   0.00000  Uiso   1.00
H283   H     0.21330   0.22821   0.49142   0.00000  Uiso   1.00
H284   H     0.18450   0.31977   0.41419   0.00000  Uiso   1.00
H285   H     0.28494   0.26329   0.48749   0.00000  Uiso   1.00
H286   H     0.14887   0.22216   0.51025   0.00000  Uiso   1.00
H287   H     0.25563   0.35420   0.40954   0.00000  Uiso   1.00
C288   C     0.95341   0.00372   0.69266   0.00000  Uiso   1.00
C289   C     0.99054   0.99182   0.68182   0.00000  Uiso   1.00
C290   C     1.00144   0.95927   0.70169   0.00000  Uiso   1.00
C291   C     0.97492   0.93832   0.73229   0.00000  Uiso   1.00
C292   C     0.93896   0.95193   0.74441   0.00000  Uiso   1.00
C293   C     0.92791   0.98413   0.72434   0.00000  Uiso   1.00
C294   C    -0.00454   0.87306   0.72663   0.00000  Uiso   1.00
H295   H     0.03006   0.73416   0.83245   0.00000  Uiso   1.00
H296   H     0.99276   0.77512   0.79452   0.00000  Uiso   1.00
H297   H     0.08067   0.77711   0.69235   0.00000  Uiso   1.00
H298   H     0.11671   0.73390   0.72925   0.00000  Uiso   1.00
H299   H     1.00509   0.84192   0.77715   0.00000  Uiso   1.00
O300   O     0.01782   0.80848   0.71982   0.00000  Uiso   1.00
O301   O     0.98397   0.90496   0.75230   0.00000  Uiso   1.00
C302   C     0.07702   0.73232   0.78428   0.00000  Uiso   1.00
C303   C     0.04171   0.74393   0.80216   0.00000  Uiso   1.00
C304   C     0.02059   0.76758   0.78053   0.00000  Uiso   1.00
C305   C     0.03552   0.78133   0.74130   0.00000  Uiso   1.00
C306   C     0.06958   0.76791   0.72293   0.00000  Uiso   1.00
C307   C     0.09031   0.74377   0.74423   0.00000  Uiso   1.00
C308   C     1.00535   0.84096   0.74395   0.00000  Uiso   1.00
H309   H     0.03013   0.95010   0.69298   0.00000  Uiso   1.00
H310   H     0.91882   0.93637   0.76841   0.00000  Uiso   1.00
H311   H     0.01034   0.00685   0.65726   0.00000  Uiso   1.00
H312   H    -0.00386   0.87380   0.69337   0.00000  Uiso   1.00
H313   H     0.89892  -0.00715   0.73261   0.00000  Uiso   1.00
C314   C     0.04938   0.52774   0.80647   0.00000  Uiso   1.00
C315   C     0.02531   0.49507   0.82848   0.00000  Uiso   1.00
C316   C     0.00773   0.45760   0.80818   0.00000  Uiso   1.00
C317   C     0.01493   0.45194   0.76566   0.00000  Uiso   1.00
C318   C     0.03738   0.48511   0.74356   0.00000  Uiso   1.00
C319   C     0.05457   0.52271   0.76372   0.00000  Uiso   1.00
C320   C     0.00988   0.37871   0.76041   0.00000  Uiso   1.00
H321   H     0.97234   0.21892   0.64744   0.00000  Uiso   1.00
H322   H     1.01722   0.27745   0.68214   0.00000  Uiso   1.00
H323   H     0.94838   0.24980   0.79587   0.00000  Uiso   1.00
H324   H     0.90218   0.19213   0.76110   0.00000  Uiso   1.00
H325   H    -0.02351   0.33825   0.71786   0.00000  Uiso   1.00
O326   O     1.00565   0.30527   0.75958   0.00000  Uiso   1.00
O327   O    -0.00033   0.41410   0.74456   0.00000  Uiso   1.00
C328   C     0.93469   0.20068   0.70207   0.00000  Uiso   1.00
C329   C     0.96810   0.22409   0.68029   0.00000  Uiso   1.00
C330   C     0.99322   0.25772   0.69975   0.00000  Uiso   1.00
C331   C     0.98534   0.26798   0.74124   0.00000  Uiso   1.00
C332   C     0.95430   0.24216   0.76384   0.00000  Uiso   1.00
C333   C     0.92850   0.20911   0.74423   0.00000  Uiso   1.00
C334   C    -0.00391   0.34092   0.74347   0.00000  Uiso   1.00
H335   H    -0.01078   0.43269   0.82559   0.00000  Uiso   1.00
H336   H     0.04313   0.48099   0.71085   0.00000  Uiso   1.00
H337   H     0.02092   0.49815   0.86149   0.00000  Uiso   1.00
H338   H     0.02941   0.38146   0.78600   0.00000  Uiso   1.00
H339   H     0.07389   0.54686   0.74618   0.00000  Uiso   1.00
C340   C     0.75016   0.78694   0.03391   0.00000  Uiso   1.00
C341   C     0.75580   0.74552   0.03312   0.00000  Uiso   1.00
C342   C     0.78993   0.73450   0.01196   0.00000  Uiso   1.00
C343   C     0.81899   0.76505  -0.00840   0.00000  Uiso   1.00
C344   C     0.81177   0.80577  -0.00938   0.00000  Uiso   1.00
C345   C     0.77802   0.81689   0.01220   0.00000  Uiso   1.00
C346   C     0.87517   0.73026  -0.00890   0.00000  Uiso   1.00
H347   H     0.05294   0.73403   0.91912   0.00000  Uiso   1.00
H348   H     0.99130   0.75223   0.95260   0.00000  Uiso   1.00
H349   H     0.95902   0.62966   1.00231   0.00000  Uiso   1.00
H350   H     0.02181   0.61200   0.97033   0.00000  Uiso   1.00
H351   H     0.92363   0.73830   0.94724   0.00000  Uiso   1.00
O352   O     0.93200   0.69864   0.99642   0.00000  Uiso   1.00
O353   O     0.85462   0.75623   0.97116   0.00000  Uiso   1.00
C354   C     0.04161   0.67139   0.94137   0.00000  Uiso   1.00
C355   C     0.03258   0.71104   0.93719   0.00000  Uiso   1.00
C356   C    -0.00301   0.72118   0.95593   0.00000  Uiso   1.00
C357   C     0.96923   0.69126   0.97839   0.00000  Uiso   1.00
C358   C     0.97964   0.65270   0.98453   0.00000  Uiso   1.00
C359   C     0.01552   0.64279   0.96638   0.00000  Uiso   1.00
C360   C     0.91140   0.72409   0.97581   0.00000  Uiso   1.00
H361   H     0.79367   0.70233   0.01181   0.00000  Uiso   1.00
H362   H     0.83316   0.82930  -0.02584   0.00000  Uiso   1.00
H363   H     0.73464   0.72216   0.05006   0.00000  Uiso   1.00
H364   H     0.86293   0.71590   0.01960   0.00000  Uiso   1.00
H365   H     0.77384   0.84897   0.01233   0.00000  Uiso   1.00
C366   C     0.55471   0.79185   0.18837   0.00000  Uiso   1.00
C367   C     0.56403   0.78581   0.22840   0.00000  Uiso   1.00
C368   C     0.54657   0.74848   0.24759   0.00000  Uiso   1.00
C369   C     0.51919   0.71690   0.22678   0.00000  Uiso   1.00
C370   C     0.50787   0.72475   0.18815   0.00000  Uiso   1.00
C371   C     0.52574   0.76140   0.16886   0.00000  Uiso   1.00
C372   C     0.51991   0.66098   0.27343   0.00000  Uiso   1.00
H373   H     0.44215   0.47270   0.28610   0.00000  Uiso   1.00
H374   H     0.47809   0.53813   0.26263   0.00000  Uiso   1.00
H375   H     0.53141   0.56748   0.38005   0.00000  Uiso   1.00
H376   H     0.49525   0.49873   0.40334   0.00000  Uiso   1.00
H377   H     0.49156   0.60167   0.25547   0.00000  Uiso   1.00
O378   O     0.52460   0.60171   0.31104   0.00000  Uiso   1.00
O379   O     0.50280   0.67688   0.24125   0.00000  Uiso   1.00
C380   C     0.46565   0.48048   0.34667   0.00000  Uiso   1.00
C381   C     0.46218   0.49263   0.30685   0.00000  Uiso   1.00
C382   C     0.48258   0.53140   0.29361   0.00000  Uiso   1.00
C383   C     0.50670   0.55995   0.32037   0.00000  Uiso   1.00
C384   C     0.51249   0.54650   0.35920   0.00000  Uiso   1.00
C385   C     0.49215   0.50715   0.37239   0.00000  Uiso   1.00
C386   C     0.51057   0.61975   0.27804   0.00000  Uiso   1.00
H387   H     0.55550   0.74458   0.27791   0.00000  Uiso   1.00
H388   H     0.48667   0.70102   0.17192   0.00000  Uiso   1.00
H389   H     0.58689   0.80850   0.24363   0.00000  Uiso   1.00
H390   H     0.53901   0.68058   0.29509   0.00000  Uiso   1.00
H391   H     0.51866   0.76471   0.13760   0.00000  Uiso   1.00
loop_
_geom_bond_atom_site_label_1
_geom_bond_atom_site_label_2
_geom_bond_distance
_geom_bond_site_symmetry_2
_ccdc_geom_bond_type
Gd0    O3      2.240   .     S
Gd0    O4      2.204   .     S
Gd0    O6      2.253   .     S
Gd0    O7      2.222   .     S
Gd0    O8      2.209   .     S
Gd0    O11     2.267   .     S
Gd1    O2      2.218   .     S
Gd1    O5      2.238   .     S
Gd1    O10     2.242   .     S
Gd1    O13     2.217   .     S
Gd1    O14     2.235   .     S
Gd1    O15     2.276   .     S
O2     C16     1.267   .     A
O3     C16     1.272   .     A
O4     C12     1.262   .     A
O5     C12     1.270   .     A
O6     C9      1.272   .     A
O7     C9      1.259   .     A
O8     C19     1.268   .     A
C9     C302    1.466   .     S
O10    C19     1.278   .     A
O11    C18     1.283   .     A
C12    C224    1.460   .     S
O13    C18     1.271   .     A
O14    C17     1.260   .     A
O15    C17     1.272   .     A
C16    C314    1.476   .     S
C17    C236    1.480   .     S
C18    C354    1.478   .     S
C19    C94     1.453   .     S
Gd20   O23     2.301   .     S
Gd20   O24     2.250   .     S
Gd20   O26     2.186   .     S
Gd20   O27     2.206   .     S
Gd20   O28     2.248   .     S
Gd20   O31     2.240   .     S
Gd21   O22     2.251   .     S
Gd21   O25     2.310   .     S
Gd21   O30     2.244   .     S
Gd21   O33     2.275   .     S
Gd21   O34     2.207   .     S
Gd21   O35     2.193   .     S
O22    C36     1.266   .     A
O23    C36     1.295   .     A
O24    C32     1.286   .     A
O25    C32     1.286   .     A
O26    C29     1.285   .     A
O27    C29     1.290   .     A
O28    C39     1.260   .     A
C29    C340    1.465   .     S
O30    C39     1.268   .     A
O31    C38     1.265   .     A
C32    C366    1.471   .     S
O33    C38     1.284   .     A
O34    C37     1.289   .     A
O35    C37     1.284   .     A
C36    C80     1.458   .     S
C37    C120    1.470   .     S
C38    C172    1.479   .     S
C39    C198    1.467   .     S
Gd40   O43     2.290   .     S
Gd40   O44     2.168   .     S
Gd40   O46     2.195   .     S
Gd40   O47     2.215   .     S
Gd40   O48     2.254   .     S
Gd40   O51     2.273   .     S
Gd41   O42     2.223   .     S
Gd41   O45     2.269   .     S
Gd41   O50     2.232   .     S
Gd41   O53     2.210   .     S
Gd41   O54     2.224   .     S
Gd41   O55     2.266   .     S
O42    C56     1.240   .     A
O43    C56     1.292   .     A
O44    C52     1.265   .     A
O45    C52     1.268   .     A
O46    C49     1.279   .     A
O47    C49     1.283   .     A
O48    C59     1.282   .     A
C49    C288    1.453   .     S
O50    C59     1.282   .     A
O51    C58     1.292   .     A
C52    C276    1.480   .     S
O53    C58     1.281   .     A
O54    C57     1.259   .     A
O55    C57     1.272   .     A
C56    C328    1.470   .     S
C57    C132    1.465   .     S
C58    C158    1.478   .     S
C59    C184    1.463   .     S
Gd60   O63     2.268   .     S
Gd60   O64     2.155   .     S
Gd60   O66     2.216   .     S
Gd60   O67     2.264   .     S
Gd60   O68     2.261   .     S
Gd60   O71     2.209   .     S
Gd61   O62     2.210   .     S
Gd61   O65     2.287   .     S
Gd61   O70     2.239   .     S
Gd61   O73     2.236   .     S
Gd61   O74     2.242   .     S
Gd61   O75     2.243   .     S
O62    C76     1.280   .     A
O63    C76     1.295   .     A
O64    C72     1.247   .     A
O65    C72     1.263   .     A
O66    C69     1.260   .     A
O67    C69     1.275   .     A
O68    C79     1.288   .     A
C69    C250    1.477   .     S
O70    C79     1.287   .     A
O71    C78     1.264   .     A
C72    C262    1.481   .     S
O73    C78     1.268   .     A
O74    C77     1.267   .     A
O75    C77     1.273   .     A
C76    C210    1.468   .     S
C77    C146    1.467   .     S
C78    C380    1.478   .     S
C79    C106    1.480   .     S
C80    C81     1.397   .     A
C80    C85     1.398   .     A
C81    C82     1.402   1_554 A
C81    H103    1.083   1_554 S
C82    H101    1.078   .     S
C82    C81     1.402   1_556 A
C82    C83     1.419   1_556 A
C83    C84     1.397   .     A
C83    O93     1.408   .     S
C83    C82     1.419   1_554 A
C84    C85     1.390   .     A
C84    H102    1.083   .     S
C85    H105    1.083   .     S
C86    C100    1.330   .     D
C86    H104    1.082   .     S
C86    O93     1.399   1_556 S
H87    C95     1.084   .     S
H88    C96     1.078   .     S
H89    C98     1.083   .     S
H90    C99     1.085   .     S
H91    C100    1.084   .     S
O92    C97     1.408   .     S
O92    C100    1.401   .     S
O93    C86     1.399   1_554 S
C94    C95     1.397   .     A
C94    C99     1.399   .     A
C95    C96     1.399   .     A
C96    C97     1.416   .     A
C97    C98     1.398   .     A
C98    C99     1.393   .     A
H103   C81     1.083   1_556 S
C106   C107    1.407   .     A
C106   C111    1.404   .     A
C107   C108    1.399   .     A
C107   H129    1.084   .     S
C108   C109    1.411   .     A
C108   H127    1.082   .     S
C109   C110    1.400   .     A
C109   O119    1.408   .     S
C110   C111    1.398   .     A
C110   H128    1.083   .     S
C111   H131    1.082   .     S
C112   O119    1.404   .     S
C112   C126    1.334   .     D
C112   H130    1.087   .     S
H113   C121    1.083   .     S
H114   C122    1.082   .     S
H115   C124    1.083   .     S
H116   C125    1.083   .     S
H117   C126    1.089   .     S
O118   C123    1.405   .     S
O118   C126    1.405   .     S
C120   C125    1.402   .     A
C120   C121    1.403   1_565 A
C121   C122    1.399   .     A
C121   C120    1.403   1_545 A
C122   C123    1.409   .     A
C123   C124    1.401   .     A
C124   C125    1.400   1_545 A
C125   C124    1.400   1_565 A
C132   C133    1.400   .     A
C132   C137    1.401   .     A
C133   C134    1.395   .     A
C133   H155    1.084   .     S
C134   C135    1.409   .     A
C134   H153    1.081   .     S
C135   C136    1.404   .     A
C135   O145    1.408   .     S
C136   C137    1.402   .     A
C136   H154    1.083   .     S
C137   H157    1.084   .     S
C138   O145    1.406   .     S
C138   C152    1.335   .     D
C138   H156    1.087   .     S
H139   C147    1.083   .     S
H140   C148    1.080   .     S
H141   C150    1.083   .     S
H142   C151    1.084   .     S
H143   C152    1.087   .     S
O144   C149    1.411   .     S
O144   C152    1.406   .     S
C146   C147    1.397   .     A
C146   C151    1.403   .     A
C147   C148    1.399   .     A
C148   C149    1.414   .     A
C149   C150    1.402   .     A
C150   C151    1.400   .     A
C158   C159    1.406   .     A
C158   C163    1.405   .     A
C159   C160    1.400   .     A
C159   H181    1.083   .     S
C160   C161    1.409   .     A
C160   H179    1.082   .     S
C161   C162    1.400   1_545 A
C161   O171    1.406   1_545 S
C162   H180    1.082   .     S
C162   C161    1.400   1_565 A
C162   C163    1.398   1_565 A
C163   H183    1.084   .     S
C163   C162    1.398   1_545 A
C164   H182    1.088   .     S
C164   O171    1.407   1_545 S
C164   C178    1.335   1_545 D
H165   C173    1.083   .     S
H166   C174    1.082   .     S
H167   C176    1.083   .     S
H168   C177    1.083   .     S
H169   C178    1.088   .     S
O170   C175    1.409   1_545 S
O170   C178    1.408   1_545 S
O171   C161    1.406   1_565 S
O171   C164    1.407   1_565 S
C172   C177    1.405   .     A
C172   C173    1.405   1_554 A
C173   C174    1.393   .     A
C173   C172    1.405   1_556 A
C174   C175    1.408   .     A
C175   O170    1.409   1_565 S
C175   C176    1.403   1_565 A
C176   C175    1.403   1_545 A
C176   C177    1.403   1_546 A
C177   C176    1.403   1_564 A
C178   C164    1.335   1_565 D
C178   O170    1.408   1_565 S
C184   C185    1.402   .     A
C184   C189    1.396   .     A
C185   C186    1.406   1_545 A
C185   H207    1.083   1_545 S
C186   H205    1.079   .     S
C186   C185    1.406   1_565 A
C186   C187    1.417   1_565 A
C187   C188    1.397   .     A
C187   O197    1.408   .     S
C187   C186    1.417   1_545 A
C188   C189    1.390   .     A
C188   H206    1.082   .     S
C189   H209    1.083   .     S
C190   C204    1.334   .     D
C190   H208    1.084   .     S
C190   O197    1.402   1_565 S
H191   C199    1.083   .     S
H192   C200    1.078   .     S
H193   C202    1.082   .     S
H194   C203    1.082   .     S
H195   C204    1.084   .     S
O196   C201    1.412   .     S
O196   C204    1.403   .     S
O197   C190    1.402   1_545 S
C198   C199    1.399   .     A
C198   C203    1.400   .     A
C199   C200    1.400   .     A
C200   C201    1.418   .     A
C201   C202    1.400   .     A
C202   C203    1.395   .     A
H207   C185    1.083   1_565 S
C210   C211    1.401   .     A
C210   C215    1.405   .     A
C211   C212    1.402   .     A
C211   H233    1.083   .     S
C212   C213    1.417   .     A
C212   H231    1.080   .     S
C213   C214    1.397   .     A
C213   O223    1.410   .     S
C214   C215    1.395   .     A
C214   H232    1.083   .     S
C215   H235    1.083   .     S
C216   O223    1.400   .     S
C216   C230    1.333   .     D
C216   H234    1.086   .     S
H217   C225    1.084   .     S
H218   C226    1.081   .     S
H219   C228    1.083   .     S
H220   C229    1.084   .     S
H221   C230    1.087   .     S
O222   C227    1.404   .     S
O222   C230    1.399   .     S
C224   C225    1.402   .     A
C224   C229    1.400   .     A
C225   C226    1.401   .     A
C226   C227    1.414   .     A
C227   C228    1.397   .     A
C228   C229    1.392   .     A
C236   C241    1.406   .     A
C236   C237    1.405   1_556 A
C237   C238    1.405   .     A
C237   H259    1.082   .     S
C237   C236    1.405   1_554 A
C238   C239    1.410   .     A
C238   H257    1.082   .     S
C239   O249    1.405   .     S
C239   C240    1.396   1_554 A
C240   C241    1.397   .     A
C240   H258    1.083   .     S
C240   C239    1.396   1_556 A
C241   H261    1.084   .     S
C242   O249    1.404   .     S
C242   C256    1.335   .     D
C242   H260    1.088   .     S
H243   C251    1.084   .     S
H244   C252    1.082   .     S
H245   C254    1.082   .     S
H246   C255    1.082   .     S
H247   C256    1.087   .     S
O248   C253    1.408   .     S
O248   C256    1.406   .     S
C250   C251    1.406   .     A
C250   C255    1.401   .     A
C251   C252    1.397   .     A
C252   C253    1.409   .     A
C253   C254    1.402   .     A
C254   C255    1.402   .     A
C262   C263    1.404   .     A
C262   C267    1.406   .     A
C263   C264    1.410   .     A
C263   H285    1.082   .     S
C264   C265    1.419   .     A
C264   H283    1.079   .     S
C265   C266    1.394   .     A
C265   O275    1.408   .     S
C266   C267    1.391   .     A
C266   H284    1.084   .     S
C267   H287    1.085   .     S
C268   O275    1.402   .     S
C268   C282    1.337   .     D
C268   H286    1.084   .     S
H269   C277    1.083   .     S
H270   C278    1.082   .     S
H271   C280    1.083   .     S
H272   C281    1.082   .     S
H273   C282    1.088   .     S
O274   C279    1.408   .     S
O274   C282    1.402   .     S
C276   C277    1.406   .     A
C276   C281    1.404   .     A
C277   C278    1.407   1_655 A
C278   C279    1.415   .     A
C278   C277    1.407   1_455 A
C279   C280    1.395   .     A
C280   C281    1.392   1_455 A
C281   C280    1.392   1_655 A
C288   C289    1.399   1_545 A
C288   C293    1.399   1_545 A
C289   C290    1.397   .     A
C289   C288    1.399   1_565 A
C289   H311    1.083   1_665 S
C290   C291    1.408   .     A
C290   H309    1.083   1_655 S
C291   C292    1.397   .     A
C291   O301    1.395   .     S
C292   C293    1.393   .     A
C292   H310    1.083   .     S
C293   C288    1.399   1_565 A
C293   H313    1.084   1_565 S
C294   H312    1.090   .     S
C294   O301    1.401   1_455 S
C294   C308    1.327   1_455 D
H295   C303    1.083   .     S
H296   C304    1.082   1_655 S
H297   C306    1.083   .     S
H298   C307    1.083   .     S
H299   C308    1.086   .     S
O300   C305    1.404   .     S
O300   C308    1.402   1_455 S
O301   C294    1.401   1_655 S
C302   C303    1.401   .     A
C302   C307    1.404   .     A
C303   C304    1.396   .     A
C304   C305    1.412   .     A
C304   H296    1.082   1_455 S
C305   C306    1.396   .     A
C306   C307    1.393   .     A
C308   C294    1.327   1_655 D
C308   O300    1.402   1_655 S
H309   C290    1.083   1_455 S
H311   C289    1.083   1_445 S
H313   C293    1.084   1_545 S
C314   C315    1.405   .     A
C314   C319    1.405   .     A
C315   C316    1.400   .     A
C315   H337    1.084   .     S
C316   C317    1.407   .     A
C316   H335    1.084   .     S
C317   C318    1.398   .     A
C317   O327    1.402   .     S
C318   C319    1.398   .     A
C318   H336    1.082   .     S
C319   H339    1.082   .     S
C320   O327    1.404   .     S
C320   C334    1.332   .     D
C320   H338    1.088   .     S
H321   C329    1.085   .     S
H322   C330    1.082   .     S
H323   C332    1.080   .     S
H324   C333    1.082   .     S
H325   C334    1.090   .     S
O326   C331    1.396   .     S
O326   C334    1.406   1_655 S
C328   C329    1.403   .     A
C328   C333    1.404   .     A
C329   C330    1.395   .     A
C330   C331    1.403   .     A
C331   C332    1.401   .     A
C332   C333    1.397   .     A
C334   O326    1.406   1_455 S
C340   C341    1.401   .     A
C340   C345    1.401   .     A
C341   C342    1.401   .     A
C341   H363    1.083   .     S
C342   C343    1.412   .     A
C342   H361    1.082   .     S
C343   C344    1.401   .     A
C343   O353    1.407   1_554 S
C344   C345    1.397   .     A
C344   H362    1.083   .     S
C345   H365    1.084   .     S
C346   H364    1.087   .     S
C346   O353    1.407   1_554 S
C346   C360    1.336   1_554 D
H347   C355    1.083   .     S
H348   C356    1.081   1_655 S
H349   C358    1.083   .     S
H350   C359    1.084   .     S
H351   C360    1.087   .     S
O352   C357    1.409   .     S
O352   C360    1.407   .     S
O353   C343    1.407   1_556 S
O353   C346    1.407   1_556 S
C354   C355    1.403   .     A
C354   C359    1.405   .     A
C355   C356    1.400   .     A
C356   H348    1.081   1_455 S
C356   C357    1.411   1_455 A
C357   C358    1.400   .     A
C357   C356    1.411   1_655 A
C358   C359    1.399   1_655 A
C359   C358    1.399   1_455 A
C360   C346    1.336   1_556 D
C366   C367    1.402   .     A
C366   C371    1.404   .     A
C367   C368    1.405   .     A
C367   H389    1.082   .     S
C368   C369    1.414   .     A
C368   H387    1.078   .     S
C369   C370    1.397   .     A
C369   O379    1.407   .     S
C370   C371    1.392   .     A
C370   H388    1.084   .     S
C371   H391    1.083   .     S
C372   O379    1.405   .     S
C372   C386    1.334   .     D
C372   H390    1.082   .     S
H373   C381    1.084   .     S
H374   C382    1.077   .     S
H375   C384    1.083   .     S
H376   C385    1.082   .     S
H377   C386    1.080   .     S
O378   C383    1.416   .     S
O378   C386    1.410   .     S
C380   C381    1.403   .     A
C380   C385    1.404   .     A
C381   C382    1.391   .     A
C382   C383    1.413   .     A
C383   C384    1.406   .     A
C384   C385    1.405   .     A
