data_lcy+N505+E28
_audit_creation_date              2025-01-21
_audit_creation_method            'Materials Studio'
_symmetry_space_group_name_H-M    'P1'
_symmetry_Int_Tables_number       1
_symmetry_cell_setting            triclinic
loop_
_symmetry_equiv_pos_as_xyz
  x,y,z
_cell_length_a                    34.6405
_cell_length_b                    33.6242
_cell_length_c                    30.6696
_cell_angle_alpha                 94.8488
_cell_angle_beta                  94.6261
_cell_angle_gamma                 97.7043
loop_
_atom_site_label
_atom_site_type_symbol
_atom_site_fract_x
_atom_site_fract_y
_atom_site_fract_z
_atom_site_U_iso_or_equiv
_atom_site_adp_type
_atom_site_occupancy
Yb0    Yb    0.14884   0.60676   0.81681   0.00000  Uiso   1.00
Yb1    Yb    0.10795   0.66774   0.92149   0.00000  Uiso   1.00
C2     C     0.04969   0.69142   0.94972   0.00000  Uiso   1.00
O3     O     0.09682   0.57205   0.83024   0.00000  Uiso   1.00
O4     O     0.11096   0.57950   0.76259   0.00000  Uiso   1.00
O5     O     0.12508   0.66257   0.81265   0.00000  Uiso   1.00
O6     O     0.07841   0.65497   0.85706   0.00000  Uiso   1.00
O7     O     0.18150   0.55923   0.80642   0.00000  Uiso   1.00
O8     O     0.19943   0.61885   0.78429   0.00000  Uiso   1.00
O9     O     0.16267   0.69727   0.90922   0.00000  Uiso   1.00
O10    O     0.14820   0.68880   0.97663   0.00000  Uiso   1.00
C11    C     0.08931   0.56068   0.78880   0.00000  Uiso   1.00
O12    O     0.18007   0.62189   0.88108   0.00000  Uiso   1.00
O13    O     0.12849   0.61022   0.91858   0.00000  Uiso   1.00
O14    O     0.07617   0.71595   0.93432   0.00000  Uiso   1.00
C15    C     0.09512   0.67415   0.82830   0.00000  Uiso   1.00
O16    O     0.05573   0.65443   0.95023   0.00000  Uiso   1.00
C17    C     0.20448   0.58152   0.78438   0.00000  Uiso   1.00
C18    C     0.17390   0.70138   0.95070   0.00000  Uiso   1.00
C19    C     0.16366   0.60644   0.91255   0.00000  Uiso   1.00
Yb20   Yb    0.65743   0.87774   0.08747   0.00000  Uiso   1.00
Yb21   Yb    0.56296   0.88775   0.19481   0.00000  Uiso   1.00
C22    C     0.52676   0.94465   0.21170   0.00000  Uiso   1.00
O23    O     0.64659   0.92669   0.05268   0.00000  Uiso   1.00
O24    O     0.70487   0.92318   0.08510   0.00000  Uiso   1.00
O25    O     0.64149   0.90658   0.14787   0.00000  Uiso   1.00
O26    O     0.61751   0.92937   0.20731   0.00000  Uiso   1.00
O27    O     0.68019   0.84443   0.03756   0.00000  Uiso   1.00
O28    O     0.68875   0.83115   0.10624   0.00000  Uiso   1.00
O29    O     0.57672   0.83877   0.22749   0.00000  Uiso   1.00
O30    O     0.51775   0.83886   0.19483   0.00000  Uiso   1.00
C31    C     0.68335   0.94085   0.05864   0.00000  Uiso   1.00
O32    O     0.60073   0.83802   0.07476   0.00000  Uiso   1.00
O33    O     0.58422   0.86100   0.13734   0.00000  Uiso   1.00
O34    O     0.53702   0.92227   0.24170   0.00000  Uiso   1.00
C35    C     0.64613   0.92951   0.18347   0.00000  Uiso   1.00
O36    O     0.53484   0.93452   0.17229   0.00000  Uiso   1.00
C37    C     0.69673   0.82451   0.06601   0.00000  Uiso   1.00
C38    C     0.54204   0.81975   0.21608   0.00000  Uiso   1.00
C39    C     0.57399   0.84103   0.10059   0.00000  Uiso   1.00
Yb40   Yb    0.91426   0.06491   0.65364   0.00000  Uiso   1.00
Yb41   Yb    0.87710   0.16142   0.59597   0.00000  Uiso   1.00
C42    C     0.81859   0.18981   0.56923   0.00000  Uiso   1.00
O43    O     0.86470   0.08274   0.68096   0.00000  Uiso   1.00
O44    O     0.86964   0.01896   0.66472   0.00000  Uiso   1.00
O45    O     0.89004   0.06316   0.58581   0.00000  Uiso   1.00
O46    O     0.84467   0.10274   0.59359   0.00000  Uiso   1.00
O47    O     0.94444   0.05175   0.71185   0.00000  Uiso   1.00
O48    O     0.95954   0.02967   0.64691   0.00000  Uiso   1.00
O49    O     0.92712   0.14853   0.56651   0.00000  Uiso   1.00
O50    O     0.91988   0.21092   0.58763   0.00000  Uiso   1.00
C51    C     0.85111   0.04549   0.68344   0.00000  Uiso   1.00
O52    O     0.95351   0.12150   0.65561   0.00000  Uiso   1.00
O53    O     0.90274   0.15361   0.66000   0.00000  Uiso   1.00
O54    O     0.84137   0.17566   0.54223   0.00000  Uiso   1.00
C55    C     0.85948   0.07660   0.57059   0.00000  Uiso   1.00
O56    O     0.82846   0.18900   0.61061   0.00000  Uiso   1.00
C57    C     0.96439   0.02931   0.68903   0.00000  Uiso   1.00
C58    C     0.94118   0.18626   0.57000   0.00000  Uiso   1.00
C59    C     0.93927   0.15365   0.66593   0.00000  Uiso   1.00
Yb60   Yb    0.34368   0.38747   0.31418   0.00000  Uiso   1.00
Yb61   Yb    0.38728   0.33163   0.41585   0.00000  Uiso   1.00
C62    C     0.44742   0.30667   0.44339   0.00000  Uiso   1.00
O63    O     0.39803   0.41814   0.34133   0.00000  Uiso   1.00
O64    O     0.38279   0.40958   0.26991   0.00000  Uiso   1.00
O65    O     0.36217   0.32880   0.30518   0.00000  Uiso   1.00
O66    O     0.41179   0.34169   0.35566   0.00000  Uiso   1.00
O67    O     0.31560   0.43824   0.30622   0.00000  Uiso   1.00
O68    O     0.29179   0.37886   0.27213   0.00000  Uiso   1.00
O69    O     0.32973   0.30327   0.39655   0.00000  Uiso   1.00
O70    O     0.35232   0.31445   0.46616   0.00000  Uiso   1.00
C71    C     0.40642   0.42695   0.30280   0.00000  Uiso   1.00
O72    O     0.31423   0.37765   0.37260   0.00000  Uiso   1.00
O73    O     0.36791   0.38964   0.41917   0.00000  Uiso   1.00
O74    O     0.41824   0.28240   0.42285   0.00000  Uiso   1.00
C75    C     0.39359   0.31962   0.32313   0.00000  Uiso   1.00
O76    O     0.44302   0.34418   0.44967   0.00000  Uiso   1.00
C77    C     0.29032   0.41713   0.27718   0.00000  Uiso   1.00
C78    C     0.32312   0.30153   0.43724   0.00000  Uiso   1.00
C79    C     0.33262   0.39415   0.40873   0.00000  Uiso   1.00
C80    C     0.45354   0.79496   0.05891   0.00000  Uiso   1.00
C81    C     0.46365   0.83067   0.08699   0.00000  Uiso   1.00
C82    C     0.50278   0.84534   0.10030   0.00000  Uiso   1.00
C83    C     0.53275   0.82433   0.08682   0.00000  Uiso   1.00
C84    C     0.52290   0.78878   0.05841   0.00000  Uiso   1.00
C85    C     0.48360   0.77421   0.04454   0.00000  Uiso   1.00
C86    C     0.41194   0.78053   0.04365   0.00000  Uiso   1.00
N87    N     0.40201   0.75405   0.00727   0.00000  Uiso   1.00
N88    N     0.36457   0.74219   0.99280   0.00000  Uiso   1.00
C89    C     0.33552   0.75612   1.01428   0.00000  Uiso   1.00
N90    N     0.34543   0.78232   0.05087   0.00000  Uiso   1.00
N91    N     0.38286   0.79441   0.06513   0.00000  Uiso   1.00
C92    C     0.29394   0.74315   0.99802   0.00000  Uiso   1.00
C93    C     0.26426   0.74495   1.02655   0.00000  Uiso   1.00
C94    C     0.22504   0.73182   1.01126   0.00000  Uiso   1.00
C95    C     0.21477   0.71751   0.96696   0.00000  Uiso   1.00
C96    C     0.24434   0.71648   0.93828   0.00000  Uiso   1.00
C97    C     0.28354   0.72873   0.95375   0.00000  Uiso   1.00
H98    H     0.44139   0.84790   0.09795   0.00000  Uiso   1.00
H99    H     0.50965   0.87379   0.12025   0.00000  Uiso   1.00
H100   H     0.54555   0.77232   0.04691   0.00000  Uiso   1.00
H101   H     0.47674   0.74668   0.02272   0.00000  Uiso   1.00
H102   H     0.27144   0.75578   1.06087   0.00000  Uiso   1.00
H103   H     0.20280   0.73272   1.03406   0.00000  Uiso   1.00
H104   H     0.23726   0.70507   0.90406   0.00000  Uiso   1.00
H105   H     0.30569   0.72707   0.93093   0.00000  Uiso   1.00
C106   C     0.43113   0.20629   0.28747   0.00000  Uiso   1.00
C107   C     0.40043   0.20872   0.31444   0.00000  Uiso   1.00
C108   C     0.38778   0.24568   0.32533   0.00000  Uiso   1.00
C109   C     0.40605   0.28084   0.31009   0.00000  Uiso   1.00
C110   C     0.43673   0.27880   0.28329   0.00000  Uiso   1.00
C111   C     0.44900   0.24166   0.27170   0.00000  Uiso   1.00
C112   C     0.44416   0.16695   0.27590   0.00000  Uiso   1.00
N113   N     0.46326   0.16073   0.23951   0.00000  Uiso   1.00
N114   N     0.47442   0.12503   0.22888   0.00000  Uiso   1.00
C115   C     0.46717   0.09420   0.25437   0.00000  Uiso   1.00
N116   N     0.44830   0.10054   0.29090   0.00000  Uiso   1.00
N117   N     0.43688   0.13612   0.30133   0.00000  Uiso   1.00
C118   C     0.48019   0.05478   0.24296   0.00000  Uiso   1.00
C119   C     0.48487   0.02792   0.27509   0.00000  Uiso   1.00
C120   C     0.49923  -0.00835   0.26480   0.00000  Uiso   1.00
C121   C     0.50850   0.98120   0.22199   0.00000  Uiso   1.00
C122   C     0.50263   0.00746   0.18953   0.00000  Uiso   1.00
C123   C     0.48873   0.04391   0.19994   0.00000  Uiso   1.00
H124   H     0.38589   0.18198   0.32675   0.00000  Uiso   1.00
H125   H     0.36403   0.24694   0.34608   0.00000  Uiso   1.00
H126   H     0.45101   0.30587   0.27129   0.00000  Uiso   1.00
H127   H     0.47278   0.24074   0.25094   0.00000  Uiso   1.00
H128   H     0.47854   0.03548   0.30853   0.00000  Uiso   1.00
H129   H     0.50364   0.97207   0.29048   0.00000  Uiso   1.00
H130   H     0.50952   0.00023   0.15621   0.00000  Uiso   1.00
H131   H     0.48492   0.06372   0.17434   0.00000  Uiso   1.00
C132   C     0.70943   0.22913   0.52843   0.00000  Uiso   1.00
C133   C     0.72731   0.20429   0.49929   0.00000  Uiso   1.00
C134   C     0.76359   0.19264   0.51186   0.00000  Uiso   1.00
C135   C     0.78237   0.20514   0.55402   0.00000  Uiso   1.00
C136   C     0.76504   0.23070   0.58272   0.00000  Uiso   1.00
C137   C     0.72913   0.24283   0.56996   0.00000  Uiso   1.00
C138   C     0.67015   0.24000   0.51615   0.00000  Uiso   1.00
N139   N     0.65575   0.26903   0.54093   0.00000  Uiso   1.00
N140   N     0.62028   0.27845   0.53034   0.00000  Uiso   1.00
C141   C     0.59751   0.25908   0.49467   0.00000  Uiso   1.00
N142   N     0.61183   0.22994   0.46995   0.00000  Uiso   1.00
N143   N     0.64740   0.22062   0.48045   0.00000  Uiso   1.00
C144   C     0.55824   0.27009   0.48265   0.00000  Uiso   1.00
C145   C     0.53196   0.24615   0.45034   0.00000  Uiso   1.00
C146   C     0.49530   0.25728   0.43844   0.00000  Uiso   1.00
C147   C     0.48453   0.29286   0.45816   0.00000  Uiso   1.00
C148   C     0.51056   0.31658   0.49063   0.00000  Uiso   1.00
C149   C     0.54688   0.30520   0.50297   0.00000  Uiso   1.00
H150   H     0.71309   0.19352   0.46692   0.00000  Uiso   1.00
H151   H     0.77633   0.17282   0.48916   0.00000  Uiso   1.00
H152   H     0.77915   0.24108   0.61525   0.00000  Uiso   1.00
H153   H     0.71640   0.26220   0.59313   0.00000  Uiso   1.00
H154   H     0.53979   0.21893   0.43405   0.00000  Uiso   1.00
H155   H     0.47586   0.23871   0.41297   0.00000  Uiso   1.00
H156   H     0.50287   0.34413   0.50637   0.00000  Uiso   1.00
H157   H     0.56635   0.32437   0.52791   0.00000  Uiso   1.00
C158   C     0.78022   0.02055   0.78695   0.00000  Uiso   1.00
C159   C     0.77881   0.05652   0.76710   0.00000  Uiso   1.00
C160   C     0.79887   0.06345   0.73002   0.00000  Uiso   1.00
C161   C     0.81986   0.03414   0.71184   0.00000  Uiso   1.00
C162   C     0.81734  -0.00355   0.72872   0.00000  Uiso   1.00
C163   C     0.79807   0.98989   0.76627   0.00000  Uiso   1.00
C164   C     0.76700   0.01640   0.83113   0.00000  Uiso   1.00
N165   N     0.78485   0.99354   0.85872   0.00000  Uiso   1.00
N166   N     0.77413   0.99037   0.89910   0.00000  Uiso   1.00
C167   C     0.74510   1.00993   0.91361   0.00000  Uiso   1.00
N168   N     0.72725   0.03293   0.88609   0.00000  Uiso   1.00
N169   N     0.73829   0.03647   0.84576   0.00000  Uiso   1.00
C170   C     0.73113   1.00295   0.95693   0.00000  Uiso   1.00
C171   C     0.69160   0.00352   0.96372   0.00000  Uiso   1.00
C172   C     0.67645  -0.01253   0.00042   0.00000  Uiso   1.00
C173   C     0.70071   0.97111   0.03105   0.00000  Uiso   1.00
C174   C     0.74112   0.97541   0.02709   0.00000  Uiso   1.00
C175   C     0.75612   0.99066   0.98998   0.00000  Uiso   1.00
H176   H     0.76479   0.08041   0.78213   0.00000  Uiso   1.00
H177   H     0.80028   0.09273   0.71751   0.00000  Uiso   1.00
H178   H     0.83324   0.97331   0.71540   0.00000  Uiso   1.00
H179   H     0.79886   0.96154   0.78044   0.00000  Uiso   1.00
H180   H     0.67171   0.01296   0.93882   0.00000  Uiso   1.00
H181   H     0.64520  -0.01527   0.00281   0.00000  Uiso   1.00
H182   H     0.76061   0.96345   0.05043   0.00000  Uiso   1.00
H183   H     0.78686   0.99052   0.98585   0.00000  Uiso   1.00
C184   C     0.81542   0.04496   0.43490   0.00000  Uiso   1.00
C185   C     0.84642   1.02705   0.45351   0.00000  Uiso   1.00
C186   C     0.86058   0.03710   0.49763   0.00000  Uiso   1.00
C187   C     0.84377   0.06499   0.52422   0.00000  Uiso   1.00
C188   C     0.81223   0.08224   0.50582   0.00000  Uiso   1.00
C189   C     0.79849   0.07268   0.46159   0.00000  Uiso   1.00
C190   C     0.79971   0.03371   0.38845   0.00000  Uiso   1.00
N191   N     0.77503   0.05601   0.36827   0.00000  Uiso   1.00
N192   N     0.75852   0.04437   0.32770   0.00000  Uiso   1.00
C193   C     0.76600   1.00998   0.30541   0.00000  Uiso   1.00
N194   N     0.79141   0.98813   0.32523   0.00000  Uiso   1.00
N195   N     0.80805   0.99985   0.36582   0.00000  Uiso   1.00
C196   C     0.74234   0.99377   0.26361   0.00000  Uiso   1.00
C197   C     0.74531   0.95516   0.24353   0.00000  Uiso   1.00
C198   C     0.71598   0.93557   0.21180   0.00000  Uiso   1.00
C199   C     0.68338   0.95432   0.20005   0.00000  Uiso   1.00
C200   C     0.68278   0.99445   0.21620   0.00000  Uiso   1.00
C201   C     0.71222   0.01420   0.24730   0.00000  Uiso   1.00
H202   H     0.85995   1.00544   0.43389   0.00000  Uiso   1.00
H203   H     0.88474   1.02303   0.51085   0.00000  Uiso   1.00
H204   H     0.79820   0.10332   0.52551   0.00000  Uiso   1.00
H205   H     0.77413   0.08656   0.44854   0.00000  Uiso   1.00
H206   H     0.76841   0.93876   0.25489   0.00000  Uiso   1.00
H207   H     0.71668   0.90436   0.20013   0.00000  Uiso   1.00
H208   H     0.65769   0.00929   0.20763   0.00000  Uiso   1.00
H209   H     0.70932   0.04417   0.26130   0.00000  Uiso   1.00
C210   C     0.29122   0.46009   0.51504   0.00000  Uiso   1.00
C211   C     0.32381   0.47681   0.49494   0.00000  Uiso   1.00
C212   C     0.33541   0.45644   0.45788   0.00000  Uiso   1.00
C213   C     0.31427   0.41947   0.43973   0.00000  Uiso   1.00
C214   C     0.27998   0.40415   0.45746   0.00000  Uiso   1.00
C215   C     0.26862   0.42424   0.49513   0.00000  Uiso   1.00
C216   C     0.28295   0.47834   0.55822   0.00000  Uiso   1.00
N217   N     0.26008   0.45673   0.58430   0.00000  Uiso   1.00
N218   N     0.25431   0.47242   0.62417   0.00000  Uiso   1.00
C219   C     0.27131   0.51028   0.63969   0.00000  Uiso   1.00
N220   N     0.29410   0.53194   0.61356   0.00000  Uiso   1.00
N221   N     0.30004   0.51617   0.57377   0.00000  Uiso   1.00
C222   C     0.26253   0.52854   0.68265   0.00000  Uiso   1.00
C223   C     0.26845   0.57064   0.69233   0.00000  Uiso   1.00
C224   C     0.25276   0.58823   0.72854   0.00000  Uiso   1.00
C225   C     0.23134   0.56398   0.75586   0.00000  Uiso   1.00
C226   C     0.22932   0.52191   0.74902   0.00000  Uiso   1.00
C227   C     0.24462   0.50432   0.71258   0.00000  Uiso   1.00
H228   H     0.34175   0.50440   0.50926   0.00000  Uiso   1.00
H229   H     0.36215   0.46850   0.44463   0.00000  Uiso   1.00
H230   H     0.26366   0.37540   0.44415   0.00000  Uiso   1.00
H231   H     0.24307   0.41090   0.50962   0.00000  Uiso   1.00
H232   H     0.28272   0.59011   0.67029   0.00000  Uiso   1.00
H233   H     0.25495   0.62077   0.73321   0.00000  Uiso   1.00
H234   H     0.21330   0.50248   0.76984   0.00000  Uiso   1.00
H235   H     0.24054   0.47176   0.70661   0.00000  Uiso   1.00
C236   C     0.20705   0.54336   0.01553   0.00000  Uiso   1.00
C237   C     0.22534   0.58240   0.01004   0.00000  Uiso   1.00
C238   C     0.21396   0.60197   0.97364   0.00000  Uiso   1.00
C239   C     0.18404   0.58283   0.94247   0.00000  Uiso   1.00
C240   C     0.16766   0.54298   0.94622   0.00000  Uiso   1.00
C241   C     0.17939   0.52319   0.98215   0.00000  Uiso   1.00
C242   C     0.21445   0.52497   0.05709   0.00000  Uiso   1.00
N243   N     0.19929   0.48619   0.06117   0.00000  Uiso   1.00
N244   N     0.20479   0.47012   0.09903   0.00000  Uiso   1.00
C245   C     0.22528   0.49230   0.13459   0.00000  Uiso   1.00
N246   N     0.24017   0.53116   0.13059   0.00000  Uiso   1.00
N247   N     0.23476   0.54720   0.09271   0.00000  Uiso   1.00
C248   C     0.23422   0.47359   0.17559   0.00000  Uiso   1.00
C249   C     0.25426   0.49707   0.21274   0.00000  Uiso   1.00
C250   C     0.26931   0.47867   0.24829   0.00000  Uiso   1.00
C251   C     0.26468   0.43645   0.24727   0.00000  Uiso   1.00
C252   C     0.24148   0.41316   0.21210   0.00000  Uiso   1.00
C253   C     0.22634   0.43156   0.17659   0.00000  Uiso   1.00
H254   H     0.24715   0.59856   0.03483   0.00000  Uiso   1.00
H255   H     0.22645   0.63295   0.97152   0.00000  Uiso   1.00
H256   H     0.14423   0.52796   0.92251   0.00000  Uiso   1.00
H257   H     0.16508   0.49297   0.98495   0.00000  Uiso   1.00
H258   H     0.26028   0.52956   0.21340   0.00000  Uiso   1.00
H259   H     0.28704   0.49742   0.27501   0.00000  Uiso   1.00
H260   H     0.23743   0.38054   0.21047   0.00000  Uiso   1.00
H261   H     0.21069   0.41257   0.14875   0.00000  Uiso   1.00
C262   C     0.20801   0.26602   0.47660   0.00000  Uiso   1.00
C263   C     0.24146   0.26302   0.50461   0.00000  Uiso   1.00
C264   C     0.27893   0.27424   0.49172   0.00000  Uiso   1.00
C265   C     0.28370   0.28749   0.45005   0.00000  Uiso   1.00
C266   C     0.25028   0.28950   0.42156   0.00000  Uiso   1.00
C267   C     0.21280   0.27937   0.43492   0.00000  Uiso   1.00
C268   C     0.16838   0.25541   0.49090   0.00000  Uiso   1.00
N269   N     0.13782   0.27326   0.47522   0.00000  Uiso   1.00
N270   N     0.10220   0.26367   0.48821   0.00000  Uiso   1.00
C271   C     0.09564   0.23554   0.51707   0.00000  Uiso   1.00
N272   N     0.12618   0.21768   0.53266   0.00000  Uiso   1.00
N273   N     0.16185   0.22759   0.52008   0.00000  Uiso   1.00
C274   C     0.05590   0.22357   0.53039   0.00000  Uiso   1.00
C275   C     0.04477   0.18402   0.54065   0.00000  Uiso   1.00
C276   C     0.00722   0.17201   0.55256   0.00000  Uiso   1.00
C277   C     0.98026   0.19959   0.55580   0.00000  Uiso   1.00
C278   C     0.99138   0.23936   0.54609   0.00000  Uiso   1.00
C279   C     0.02874   0.25109   0.53283   0.00000  Uiso   1.00
H280   H     0.23864   0.25281   0.53691   0.00000  Uiso   1.00
H281   H     0.30420   0.27254   0.51432   0.00000  Uiso   1.00
H282   H     0.25312   0.30011   0.38944   0.00000  Uiso   1.00
H283   H     0.18755   0.28169   0.41253   0.00000  Uiso   1.00
H284   H     0.06498   0.16212   0.53887   0.00000  Uiso   1.00
H285   H     0.99955   0.14124   0.56020   0.00000  Uiso   1.00
H286   H     0.97109   0.26115   0.54825   0.00000  Uiso   1.00
H287   H     0.03663   0.28180   0.52515   0.00000  Uiso   1.00
C288   C     0.02112   0.93651   0.74336   0.00000  Uiso   1.00
C289   C     0.99983   0.96026   0.76963   0.00000  Uiso   1.00
C290   C     0.98374   0.99253   0.75298   0.00000  Uiso   1.00
C291   C     0.98833   0.00148   0.70960   0.00000  Uiso   1.00
C292   C     1.01136   0.97915   0.68415   0.00000  Uiso   1.00
C293   C     0.02779   0.94718   0.70094   0.00000  Uiso   1.00
C294   C     0.03397   0.89926   0.75871   0.00000  Uiso   1.00
N295   N     0.05961   0.87997   0.73671   0.00000  Uiso   1.00
N296   N     0.06919   0.84510   0.74853   0.00000  Uiso   1.00
C297   C     0.05333   0.82777   0.78264   0.00000  Uiso   1.00
N298   N     0.02790   0.84721   0.80494   0.00000  Uiso   1.00
N299   N     0.01845   0.88223   0.79323   0.00000  Uiso   1.00
C300   C     0.06327   0.78820   0.79447   0.00000  Uiso   1.00
C301   C     0.04139   0.76553   0.82295   0.00000  Uiso   1.00
C302   C     0.05097   0.72799   0.83334   0.00000  Uiso   1.00
C303   C     0.08287   0.71262   0.81587   0.00000  Uiso   1.00
C304   C     0.10429   0.73513   0.78700   0.00000  Uiso   1.00
C305   C     0.09464   0.77235   0.77647   0.00000  Uiso   1.00
H306   H     0.99450   0.95313   0.80259   0.00000  Uiso   1.00
H307   H     0.96591   0.00906   0.77328   0.00000  Uiso   1.00
H308   H     1.01527   0.98529   0.65056   0.00000  Uiso   1.00
H309   H     0.04412   0.92963   0.67982   0.00000  Uiso   1.00
H310   H     0.01668   0.77659   0.83691   0.00000  Uiso   1.00
H311   H     0.03350   0.71111   0.85511   0.00000  Uiso   1.00
H312   H     0.12892   0.72419   0.77268   0.00000  Uiso   1.00
H313   H     0.11209   0.78886   0.75439   0.00000  Uiso   1.00
C314   C     0.03169   0.44182   0.74989   0.00000  Uiso   1.00
C315   C     0.02707   0.46071   0.79150   0.00000  Uiso   1.00
C316   C     0.04228   0.50125   0.80294   0.00000  Uiso   1.00
C317   C     0.06213   0.52370   0.77290   0.00000  Uiso   1.00
C318   C     0.06335   0.50589   0.72999   0.00000  Uiso   1.00
C319   C     0.04840   0.46532   0.71864   0.00000  Uiso   1.00
C320   C     0.02185   0.39749   0.74032   0.00000  Uiso   1.00
N321   N     0.03460   0.37793   0.70478   0.00000  Uiso   1.00
N322   N     0.02689   0.33791   0.69703   0.00000  Uiso   1.00
C323   C     0.00626   0.31579   0.72465   0.00000  Uiso   1.00
N324   N    -0.00627   0.33537   0.76028   0.00000  Uiso   1.00
N325   N     0.00155   0.37530   0.76811   0.00000  Uiso   1.00
C326   C     0.99447   0.27177   0.71436   0.00000  Uiso   1.00
C327   C     0.96301   0.25251   0.73431   0.00000  Uiso   1.00
C328   C     0.94723   0.21287   0.72024   0.00000  Uiso   1.00
C329   C     0.96299   0.19109   0.68663   0.00000  Uiso   1.00
C330   C     0.99679   0.20868   0.66946   0.00000  Uiso   1.00
C331   C     1.01205   0.24916   0.68264   0.00000  Uiso   1.00
H332   H     0.01393   0.44359   0.81622   0.00000  Uiso   1.00
H333   H     0.04106   0.51408   0.83631   0.00000  Uiso   1.00
H334   H     0.07868   0.52231   0.70617   0.00000  Uiso   1.00
H335   H     0.05176   0.45188   0.68606   0.00000  Uiso   1.00
H336   H     0.94888   0.26877   0.75898   0.00000  Uiso   1.00
H337   H     0.92129   0.19975   0.73424   0.00000  Uiso   1.00
H338   H     1.00972   0.19215   0.64403   0.00000  Uiso   1.00
H339   H     1.03665   0.26308   0.66700   0.00000  Uiso   1.00
C340   C     0.79381   0.76597   0.03104   0.00000  Uiso   1.00
C341   C     0.77037   0.78165   0.99907   0.00000  Uiso   1.00
C342   C     0.73697   0.79775   0.00994   0.00000  Uiso   1.00
C343   C     0.72630   0.79894   0.05319   0.00000  Uiso   1.00
C344   C     0.74811   0.78087   0.08463   0.00000  Uiso   1.00
C345   C     0.78153   0.76429   0.07358   0.00000  Uiso   1.00
C346   C     0.83186   0.75405   0.02014   0.00000  Uiso   1.00
N347   N     0.85159   0.73109   0.04596   0.00000  Uiso   1.00
N348   N     0.88626   0.72158   0.03610   0.00000  Uiso   1.00
C349   C     0.90277   0.73501   1.00031   0.00000  Uiso   1.00
N350   N     0.88307   0.75804   0.97471   0.00000  Uiso   1.00
N351   N     0.84840   0.76728   0.98436   0.00000  Uiso   1.00
C352   C     0.94134   0.72489   0.98911   0.00000  Uiso   1.00
C353   C     0.96332   0.74803   0.96111   0.00000  Uiso   1.00
C354   C    -0.00071   0.73806   0.94949   0.00000  Uiso   1.00
C355   C     0.01360   0.70428   0.96496   0.00000  Uiso   1.00
C356   C    -0.00810   0.68129   0.99317   0.00000  Uiso   1.00
C357   C     0.95629   0.69169   1.00547   0.00000  Uiso   1.00
H358   H     0.77858   0.78279   0.96583   0.00000  Uiso   1.00
H359   H     0.72071   0.81127   0.98486   0.00000  Uiso   1.00
H360   H     0.74044   0.78129   0.11818   0.00000  Uiso   1.00
H361   H     0.79877   0.75206   0.09885   0.00000  Uiso   1.00
H362   H     0.95264   0.77384   0.94801   0.00000  Uiso   1.00
H363   H     0.01535   0.75606   0.92743   0.00000  Uiso   1.00
H364   H     0.00243   0.65509   0.00558   0.00000  Uiso   1.00
H365   H     0.94003   0.67315   0.02690   0.00000  Uiso   1.00
C366   C     0.51436   0.69699   0.24408   0.00000  Uiso   1.00
C367   C     0.55200   0.71200   0.23406   0.00000  Uiso   1.00
C368   C     0.56077   0.75210   0.22531   0.00000  Uiso   1.00
C369   C     0.53183   0.77761   0.22537   0.00000  Uiso   1.00
C370   C     0.49383   0.76240   0.23414   0.00000  Uiso   1.00
C371   C     0.48534   0.72251   0.24427   0.00000  Uiso   1.00
C372   C     0.50563   0.65504   0.25485   0.00000  Uiso   1.00
N373   N     0.48103   0.64571   0.28586   0.00000  Uiso   1.00
N374   N     0.47304   0.60784   0.29564   0.00000  Uiso   1.00
C375   C     0.48906   0.57780   0.27456   0.00000  Uiso   1.00
N376   N     0.51357   0.58705   0.24338   0.00000  Uiso   1.00
N377   N     0.52202   0.62508   0.23404   0.00000  Uiso   1.00
C378   C     0.47723   0.53573   0.28336   0.00000  Uiso   1.00
C379   C     0.46905   0.50492   0.24865   0.00000  Uiso   1.00
C380   C     0.44883   0.46738   0.25552   0.00000  Uiso   1.00
C381   C     0.43768   0.45994   0.29742   0.00000  Uiso   1.00
C382   C     0.44981   0.48937   0.33293   0.00000  Uiso   1.00
C383   C     0.46892   0.52714   0.32582   0.00000  Uiso   1.00
H384   H     0.57487   0.69296   0.23396   0.00000  Uiso   1.00
H385   H     0.59014   0.76312   0.21798   0.00000  Uiso   1.00
H386   H     0.47104   0.78153   0.23410   0.00000  Uiso   1.00
H387   H     0.45604   0.71143   0.25181   0.00000  Uiso   1.00
H388   H     0.47530   0.51090   0.21561   0.00000  Uiso   1.00
H389   H     0.43958   0.44524   0.22761   0.00000  Uiso   1.00
H390   H     0.44129   0.48465   0.36553   0.00000  Uiso   1.00
H391   H     0.47526   0.55039   0.35312   0.00000  Uiso   1.00
loop_
_geom_bond_atom_site_label_1
_geom_bond_atom_site_label_2
_geom_bond_distance
_geom_bond_site_symmetry_2
_ccdc_geom_bond_type
Yb0    O3      2.101   .     S
Yb0    O4      2.096   .     S
Yb0    O5      2.157   .     S
Yb0    O7      2.096   .     S
Yb0    O8      2.096   .     S
Yb0    O12     2.157   .     S
Yb1    O6      2.133   .     S
Yb1    O9      2.096   .     S
Yb1    O10     2.111   .     S
Yb1    O13     2.146   .     S
Yb1    O14     2.106   .     S
Yb1    O16     2.087   .     S
C2     O14     1.295   .     A
C2     O16     1.290   .     A
C2     C355    1.474   .     S
O3     C11     1.291   .     A
O4     C11     1.290   .     A
O5     C15     1.271   .     A
O6     C15     1.268   .     A
O7     C17     1.290   .     A
O8     C17     1.291   .     A
O9     C18     1.290   .     A
O10    C18     1.294   .     A
C11    C317    1.476   .     S
O12    C19     1.272   .     A
O13    C19     1.268   .     A
C15    C303    1.484   .     S
C17    C225    1.473   .     S
C18    C95     1.477   .     S
C19    C239    1.463   .     S
Yb20   O23     2.094   .     S
Yb20   O24     2.099   .     S
Yb20   O25     2.164   .     S
Yb20   O27     2.088   .     S
Yb20   O28     2.114   .     S
Yb20   O32     2.209   .     S
Yb21   O26     2.182   .     S
Yb21   O29     2.087   .     S
Yb21   O30     2.113   .     S
Yb21   O33     2.139   .     S
Yb21   O34     2.105   .     S
Yb21   O36     2.094   .     S
C22    O34     1.294   .     A
C22    O36     1.291   .     A
C22    C121    1.478   .     S
O23    C31     1.291   .     A
O24    C31     1.292   .     A
O25    C35     1.268   .     A
O26    C35     1.278   .     A
O27    C37     1.288   .     A
O28    C37     1.294   .     A
O29    C38     1.289   .     A
O30    C38     1.293   .     A
C31    C173    1.475   .     S
O32    C39     1.275   .     A
O33    C39     1.261   .     A
C35    C199    1.467   .     S
C37    C343    1.479   .     S
C38    C369    1.471   .     S
C39    C83     1.477   .     S
Yb40   O43     2.105   .     S
Yb40   O44     2.103   .     S
Yb40   O45     2.172   .     S
Yb40   O47     2.105   .     S
Yb40   O48     2.102   .     S
Yb40   O52     2.179   .     S
Yb41   O46     2.128   .     S
Yb41   O49     2.096   .     S
Yb41   O50     2.122   .     S
Yb41   O53     2.141   .     S
Yb41   O54     2.107   .     S
Yb41   O56     2.091   .     S
C42    O54     1.294   .     A
C42    O56     1.291   .     A
C42    C135    1.476   .     S
O43    C51     1.288   .     A
O44    C51     1.290   .     A
O45    C55     1.276   .     A
O46    C55     1.268   .     A
O47    C57     1.290   .     A
O48    C57     1.291   .     A
O49    C58     1.289   .     A
O50    C58     1.295   .     A
C51    C161    1.474   .     S
O52    C59     1.274   .     A
O53    C59     1.264   .     A
C55    C187    1.482   .     S
C57    C291    1.478   .     S
C58    C277    1.479   .     S
C59    C329    1.472   .     S
Yb60   O63     2.093   .     S
Yb60   O64     2.105   .     S
Yb60   O65     2.157   .     S
Yb60   O67     2.097   .     S
Yb60   O68     2.098   .     S
Yb60   O72     2.160   .     S
Yb61   O66     2.127   .     S
Yb61   O69     2.107   .     S
Yb61   O70     2.109   .     S
Yb61   O73     2.143   .     S
Yb61   O74     2.106   .     S
Yb61   O76     2.089   .     S
C62    O74     1.294   .     A
C62    O76     1.291   .     A
C62    C147    1.475   .     S
O63    C71     1.288   .     A
O64    C71     1.291   .     A
O65    C75     1.267   .     A
O66    C75     1.262   .     A
O67    C77     1.290   .     A
O68    C77     1.291   .     A
O69    C78     1.291   .     A
O70    C78     1.293   .     A
C71    C381    1.472   .     S
O72    C79     1.276   .     A
O73    C79     1.271   .     A
C75    C109    1.462   .     S
C77    C251    1.475   .     S
C78    C265    1.479   .     S
C79    C213    1.462   .     S
C80    C81     1.403   .     A
C80    C85     1.408   .     A
C80    C86     1.482   .     S
C81    C82     1.394   .     A
C81    H98     1.083   .     S
C82    C83     1.401   .     A
C82    H99     1.078   .     S
C83    C84     1.404   .     A
C84    C85     1.403   .     A
C84    H100    1.083   .     S
C85    H101    1.082   .     S
C86    N87     1.358   .     A
C86    N91     1.359   .     A
N87    N88     1.333   1_554 A
N88    C89     1.359   .     A
N88    N87     1.333   1_556 A
C89    C92     1.480   .     S
C89    N90     1.358   1_556 A
N90    N91     1.332   .     A
N90    C89     1.358   1_554 A
C92    C93     1.407   .     A
C92    C97     1.404   .     A
C93    C94     1.401   .     A
C93    H102    1.082   .     S
C94    C95     1.403   .     A
C94    H103    1.083   .     S
C95    C96     1.405   .     A
C96    C97     1.397   .     A
C96    H104    1.084   .     S
C97    H105    1.083   .     S
C106   C107    1.406   .     A
C106   C111    1.407   .     A
C106   C112    1.478   .     S
C107   C108    1.396   .     A
C107   H124    1.082   .     S
C108   C109    1.399   .     A
C108   H125    1.083   .     S
C109   C110    1.400   .     A
C110   C111    1.399   .     A
C110   H126    1.084   .     S
C111   H127    1.083   .     S
C112   N113    1.358   .     A
C112   N117    1.358   .     A
N113   N114    1.332   .     A
N114   C115    1.359   .     A
C115   N116    1.358   .     A
C115   C118    1.480   .     S
N116   N117    1.332   .     A
C118   C119    1.406   .     A
C118   C123    1.404   .     A
C119   C120    1.399   .     A
C119   H128    1.082   .     S
C120   C121    1.404   1_545 A
C120   H129    1.083   1_545 S
C121   C120    1.404   1_565 A
C121   C122    1.406   1_565 A
C122   C123    1.397   .     A
C122   H130    1.083   .     S
C122   C121    1.406   1_545 A
C123   H131    1.083   .     S
H129   C120    1.083   1_565 S
C132   C133    1.408   .     A
C132   C137    1.406   .     A
C132   C138    1.484   .     S
C133   C134    1.400   .     A
C133   H150    1.083   .     S
C134   C135    1.404   .     A
C134   H151    1.083   .     S
C135   C136    1.403   .     A
C136   C137    1.397   .     A
C136   H152    1.083   .     S
C137   H153    1.083   .     S
C138   N139    1.359   .     A
C138   N143    1.359   .     A
N139   N140    1.332   .     A
N140   C141    1.359   .     A
C141   N142    1.359   .     A
C141   C144    1.484   .     S
N142   N143    1.333   .     A
C144   C145    1.408   .     A
C144   C149    1.406   .     A
C145   C146    1.400   .     A
C145   H154    1.083   .     S
C146   C147    1.403   .     A
C146   H155    1.083   .     S
C147   C148    1.403   .     A
C148   C149    1.396   .     A
C148   H156    1.083   .     S
C149   H157    1.083   .     S
C158   C159    1.404   .     A
C158   C164    1.476   .     S
C158   C163    1.404   1_545 A
C159   C160    1.400   .     A
C159   H176    1.083   .     S
C160   C161    1.406   .     A
C160   H177    1.083   .     S
C161   C162    1.404   .     A
C162   C163    1.395   1_545 A
C162   H178    1.083   1_545 S
C163   H179    1.083   .     S
C163   C158    1.404   1_565 A
C163   C162    1.395   1_565 A
C164   N169    1.359   .     A
C164   N165    1.357   1_545 A
N165   N166    1.330   .     A
N165   C164    1.357   1_565 A
N166   C167    1.357   .     A
C167   C170    1.477   .     S
C167   N168    1.359   1_565 A
N168   N169    1.334   .     A
N168   C167    1.359   1_545 A
C170   C175    1.405   .     A
C170   C171    1.404   1_565 A
C171   H180    1.083   .     S
C171   C170    1.404   1_545 A
C171   C172    1.399   1_556 A
C172   H181    1.083   .     S
C172   C171    1.399   1_554 A
C172   C173    1.405   1_545 A
C173   C174    1.404   .     A
C173   C172    1.405   1_565 A
C174   H182    1.083   .     S
C174   C175    1.397   1_554 A
C175   H183    1.083   .     S
C175   C174    1.397   1_556 A
H178   C162    1.083   1_565 S
C184   C189    1.406   .     A
C184   C190    1.482   .     S
C184   C185    1.405   1_545 A
C185   H202    1.083   .     S
C185   C184    1.405   1_565 A
C185   C186    1.399   1_565 A
C186   C187    1.406   .     A
C186   C185    1.399   1_545 A
C186   H203    1.083   1_545 S
C187   C188    1.405   .     A
C188   C189    1.397   .     A
C188   H204    1.082   .     S
C189   H205    1.083   .     S
C190   N191    1.357   .     A
C190   N195    1.360   1_545 A
N191   N192    1.331   .     A
N192   C193    1.359   1_545 A
C193   N194    1.359   .     A
C193   C196    1.485   .     S
C193   N192    1.359   1_565 A
N194   N195    1.333   .     A
N195   C190    1.360   1_565 A
C196   C197    1.409   .     A
C196   C201    1.406   1_565 A
C197   C198    1.402   .     A
C197   H206    1.082   .     S
C198   C199    1.402   .     A
C198   H207    1.084   .     S
C199   C200    1.401   .     A
C200   C201    1.395   1_565 A
C200   H208    1.084   1_565 S
C201   H209    1.082   .     S
C201   C196    1.406   1_545 A
C201   C200    1.395   1_545 A
H203   C186    1.083   1_565 S
H208   C200    1.084   1_545 S
C210   C211    1.404   .     A
C210   C215    1.409   .     A
C210   C216    1.478   .     S
C211   C212    1.392   .     A
C211   H228    1.083   .     S
C212   C213    1.402   .     A
C212   H229    1.084   .     S
C213   C214    1.400   .     A
C214   C215    1.399   .     A
C214   H230    1.082   .     S
C215   H231    1.083   .     S
C216   N217    1.357   .     A
C216   N221    1.359   .     A
N217   N218    1.331   .     A
N218   C219    1.358   .     A
C219   N220    1.357   .     A
C219   C222    1.478   .     S
N220   N221    1.331   .     A
C222   C223    1.405   .     A
C222   C227    1.405   .     A
C223   C224    1.397   .     A
C223   H232    1.083   .     S
C224   C225    1.404   .     A
C224   H233    1.083   .     S
C225   C226    1.404   .     A
C226   C227    1.396   .     A
C226   H234    1.083   .     S
C227   H235    1.083   .     S
C236   C237    1.409   .     A
C236   C242    1.482   .     S
C236   C241    1.406   1_554 A
C237   H254    1.082   .     S
C237   C238    1.399   1_554 A
C238   C239    1.400   .     A
C238   H255    1.082   .     S
C238   C237    1.399   1_556 A
C239   C240    1.401   .     A
C240   C241    1.395   .     A
C240   H256    1.084   .     S
C241   H257    1.083   .     S
C241   C236    1.406   1_556 A
C242   N243    1.359   .     A
C242   N247    1.358   .     A
N243   N244    1.332   .     A
N244   C245    1.358   .     A
C245   N246    1.358   .     A
C245   C248    1.482   .     S
N246   N247    1.332   .     A
C248   C249    1.406   .     A
C248   C253    1.406   .     A
C249   C250    1.397   .     A
C249   H258    1.083   .     S
C250   C251    1.404   .     A
C250   H259    1.084   .     S
C251   C252    1.404   .     A
C252   C253    1.397   .     A
C252   H260    1.083   .     S
C253   H261    1.082   .     S
C262   C263    1.406   .     A
C262   C267    1.405   .     A
C262   C268    1.482   .     S
C263   C264    1.400   .     A
C263   H280    1.083   .     S
C264   C265    1.403   .     A
C264   H281    1.083   .     S
C265   C266    1.406   .     A
C266   C267    1.400   .     A
C266   H282    1.083   .     S
C267   H283    1.083   .     S
C268   N269    1.360   .     A
C268   N273    1.358   .     A
N269   N270    1.334   .     A
N270   C271    1.359   .     A
C271   N272    1.359   .     A
C271   C274    1.481   .     S
N272   N273    1.332   .     A
C274   C275    1.403   .     A
C274   C279    1.407   .     A
C275   C276    1.396   .     A
C275   H284    1.083   .     S
C276   C277    1.405   1_455 A
C276   H285    1.083   1_455 S
C277   C278    1.405   .     A
C277   C276    1.405   1_655 A
C278   H286    1.083   .     S
C278   C279    1.404   1_655 A
C279   H287    1.083   .     S
C279   C278    1.404   1_455 A
H285   C276    1.083   1_655 S
C288   C293    1.407   .     A
C288   C294    1.484   .     S
C288   C289    1.406   1_455 A
C289   C290    1.400   .     A
C289   H306    1.083   .     S
C289   C288    1.406   1_655 A
C290   C291    1.405   1_565 A
C290   H307    1.083   1_565 S
C291   C290    1.405   1_545 A
C291   C292    1.404   1_545 A
C292   H308    1.083   .     S
C292   C291    1.404   1_565 A
C292   C293    1.398   1_655 A
C293   H309    1.083   .     S
C293   C292    1.398   1_455 A
C294   N295    1.358   .     A
C294   N299    1.360   .     A
N295   N296    1.331   .     A
N296   C297    1.359   .     A
C297   N298    1.359   .     A
C297   C300    1.485   .     S
N298   N299    1.334   .     A
C300   C301    1.408   .     A
C300   C305    1.404   .     A
C301   C302    1.403   .     A
C301   H310    1.083   .     S
C302   C303    1.406   .     A
C302   H311    1.082   .     S
C303   C304    1.406   .     A
C304   C305    1.395   .     A
C304   H312    1.083   .     S
C305   H313    1.083   .     S
H307   C290    1.083   1_545 S
C314   C315    1.407   .     A
C314   C319    1.405   .     A
C314   C320    1.482   .     S
C315   C316    1.398   .     A
C315   H332    1.083   .     S
C316   C317    1.404   .     A
C316   H333    1.083   .     S
C317   C318    1.405   .     A
C318   C319    1.397   .     A
C318   H334    1.083   .     S
C319   H335    1.083   .     S
C320   N321    1.360   .     A
C320   N325    1.357   .     A
N321   N322    1.333   .     A
N322   C323    1.358   .     A
C323   N324    1.359   .     A
C323   C326    1.482   1_455 S
N324   N325    1.331   .     A
C326   C327    1.402   .     A
C326   C331    1.411   .     A
C326   C323    1.482   1_655 S
C327   C328    1.390   .     A
C327   H336    1.083   .     S
C328   C329    1.403   .     A
C328   H337    1.084   .     S
C329   C330    1.402   .     A
C330   C331    1.405   .     A
C330   H338    1.081   .     S
C331   H339    1.083   .     S
C340   C345    1.408   .     A
C340   C346    1.483   .     S
C340   C341    1.404   1_554 A
C341   H358    1.083   .     S
C341   C340    1.404   1_556 A
C341   C342    1.394   1_556 A
C342   C343    1.404   .     A
C342   C341    1.394   1_554 A
C342   H359    1.083   1_554 S
C343   C344    1.405   .     A
C344   C345    1.404   .     A
C344   H360    1.083   .     S
C345   H361    1.083   .     S
C346   N347    1.360   .     A
C346   N351    1.358   1_554 A
N347   N348    1.334   .     A
N348   C349    1.361   1_554 A
C349   N350    1.357   .     A
C349   C352    1.482   .     S
C349   N348    1.361   1_556 A
N350   N351    1.330   .     A
N351   C346    1.358   1_556 A
C352   C353    1.408   .     A
C352   C357    1.405   .     A
C353   H362    1.083   .     S
C353   C354    1.398   1_655 A
C354   C355    1.402   .     A
C354   H363    1.083   .     S
C354   C353    1.398   1_455 A
C355   C356    1.405   .     A
C356   C357    1.398   1_455 A
C356   H364    1.083   1_556 S
C357   C356    1.398   1_655 A
C357   H365    1.083   1_556 S
H359   C342    1.083   1_556 S
H364   C356    1.083   1_554 S
H365   C357    1.083   1_554 S
C366   C367    1.401   .     A
C366   C371    1.406   .     A
C366   C372    1.473   .     S
C367   C368    1.395   .     A
C367   H384    1.083   .     S
C368   C369    1.404   .     A
C368   H385    1.083   .     S
C369   C370    1.402   .     A
C370   C371    1.401   .     A
C370   H386    1.083   .     S
C371   H387    1.083   .     S
C372   N373    1.356   .     A
C372   N377    1.359   .     A
N373   N374    1.331   .     A
N374   C375    1.358   .     A
C375   N376    1.357   .     A
C375   C378    1.473   .     S
N376   N377    1.334   .     A
C378   C379    1.405   .     A
C378   C383    1.402   .     A
C379   C380    1.400   .     A
C379   H388    1.083   .     S
C380   C381    1.404   .     A
C380   H389    1.083   .     S
C381   C382    1.405   .     A
C382   C383    1.394   .     A
C382   H390    1.084   .     S
C383   H391    1.083   .     S
