data_lcy+N144+E229
_audit_creation_date              2025-01-21
_audit_creation_method            'Materials Studio'
_symmetry_space_group_name_H-M    'P1'
_symmetry_Int_Tables_number       1
_symmetry_cell_setting            triclinic
loop_
_symmetry_equiv_pos_as_xyz
  x,y,z
_cell_length_a                    38.7407
_cell_length_b                    37.8638
_cell_length_c                    37.4886
_cell_angle_alpha                 89.8761
_cell_angle_beta                  88.6042
_cell_angle_gamma                 87.6804
loop_
_atom_site_label
_atom_site_type_symbol
_atom_site_fract_x
_atom_site_fract_y
_atom_site_fract_z
_atom_site_U_iso_or_equiv
_atom_site_adp_type
_atom_site_occupancy
C0     C     0.20276   0.68717   0.91281   0.00000  Uiso   1.00
Er1    Er    0.10663   0.61971   0.86357   0.00000  Uiso   1.00
Er2    Er    0.14883   0.66259   0.86283   0.00000  Uiso   1.00
C3     C     0.09293   0.67710   0.91963   0.00000  Uiso   1.00
O4     O     0.17553   0.62550   0.89934   0.00000  Uiso   1.00
C5     C     0.09029   0.68092   0.81345   0.00000  Uiso   1.00
C6     C     0.16103   0.61057   0.80283   0.00000  Uiso   1.00
C7     C     0.07366   0.57074   0.83123   0.00000  Uiso   1.00
O8     O     0.19283   0.69548   0.94283   0.00000  Uiso   1.00
O9     O     0.19370   0.65481   0.89850   0.00000  Uiso   1.00
O10    O     0.17508   0.63633   0.81772   0.00000  Uiso   1.00
O11    O     0.13461   0.59650   0.81721   0.00000  Uiso   1.00
O12    O     0.11824   0.69234   0.82478   0.00000  Uiso   1.00
O13    O     0.07795   0.65334   0.82691   0.00000  Uiso   1.00
C14    C     0.16471   0.59538   0.90962   0.00000  Uiso   1.00
O15    O     0.13569   0.58502   0.89945   0.00000  Uiso   1.00
O16    O     0.12052   0.68940   0.90641   0.00000  Uiso   1.00
O17    O     0.08257   0.64779   0.90854   0.00000  Uiso   1.00
O18    O     0.10442   0.57844   0.82262   0.00000  Uiso   1.00
O19    O     0.06313   0.58537   0.85989   0.00000  Uiso   1.00
C20    C     0.70532   0.92392   0.19948   0.00000  Uiso   1.00
Er21   Er    0.61764   0.84493   0.12170   0.00000  Uiso   1.00
Er22   Er    0.69662   0.87451   0.13408   0.00000  Uiso   1.00
C23    C     0.66935   0.89874   0.07256   0.00000  Uiso   1.00
O24    O     0.64947   0.90170   0.15856   0.00000  Uiso   1.00
C25    C     0.67713   0.80090   0.09223   0.00000  Uiso   1.00
C26    C     0.66680   0.82617   0.18857   0.00000  Uiso   1.00
C27    C     0.56385   0.81517   0.10171   0.00000  Uiso   1.00
O28    O     0.68516   0.94904   0.20477   0.00000  Uiso   1.00
O29    O     0.71894   0.91833   0.16510   0.00000  Uiso   1.00
O30    O     0.69535   0.83793   0.17747   0.00000  Uiso   1.00
O31    O     0.63779   0.83684   0.17584   0.00000  Uiso   1.00
O32    O     0.69532   0.82760   0.09871   0.00000  Uiso   1.00
O33    O     0.64605   0.79874   0.10328   0.00000  Uiso   1.00
C34    C     0.61933   0.91441   0.15063   0.00000  Uiso   1.00
O35    O     0.59587   0.89492   0.13888   0.00000  Uiso   1.00
O36    O     0.69632   0.90769   0.08717   0.00000  Uiso   1.00
O37    O     0.65088   0.87895   0.09137   0.00000  Uiso   1.00
O38    O     0.57414   0.81327   0.13393   0.00000  Uiso   1.00
O39    O     0.58012   0.83655   0.08124   0.00000  Uiso   1.00
C40    C     0.89340   0.23252   0.66441   0.00000  Uiso   1.00
Er41   Er    0.84249   0.11290   0.63323   0.00000  Uiso   1.00
Er42   Er    0.85765   0.16210   0.66465   0.00000  Uiso   1.00
C43    C     0.90298   0.09524   0.67810   0.00000  Uiso   1.00
O44    O     0.89044   0.17626   0.61940   0.00000  Uiso   1.00
C45    C     0.81354   0.11419   0.70855   0.00000  Uiso   1.00
C46    C     0.78945   0.17495   0.63152   0.00000  Uiso   1.00
C47    C     0.81821   0.06092   0.57208   0.00000  Uiso   1.00
O48    O     0.88696   0.26141   0.65125   0.00000  Uiso   1.00
O49    O     0.89273   0.20254   0.64266   0.00000  Uiso   1.00
O50    O     0.81354   0.19207   0.64490   0.00000  Uiso   1.00
O51    O     0.79511   0.14334   0.62064   0.00000  Uiso   1.00
O52    O     0.82571   0.14456   0.70788   0.00000  Uiso   1.00
O53    O     0.81389   0.09536   0.68051   0.00000  Uiso   1.00
C54    C     0.89690   0.15461   0.59385   0.00000  Uiso   1.00
O55    O     0.87807   0.12816   0.58982   0.00000  Uiso   1.00
O56    O     0.89936   0.12802   0.68570   0.00000  Uiso   1.00
O57    O     0.88567   0.08250   0.65333   0.00000  Uiso   1.00
O58    O     0.82690   0.06605   0.60427   0.00000  Uiso   1.00
O59    O     0.82692   0.06597   0.60438   0.00000  Uiso   1.00
C60    C     0.30517   0.32805   0.42820   0.00000  Uiso   1.00
Er61   Er    0.39874   0.38656   0.34314   0.00000  Uiso   1.00
Er62   Er    0.36551   0.35067   0.37819   0.00000  Uiso   1.00
C63    C     0.44344   0.34205   0.39127   0.00000  Uiso   1.00
O64    O     0.36109   0.38985   0.42004   0.00000  Uiso   1.00
C65    C     0.38916   0.31362   0.31073   0.00000  Uiso   1.00
C66    C     0.32309   0.39193   0.32405   0.00000  Uiso   1.00
C67    C     0.42265   0.44951   0.32881   0.00000  Uiso   1.00
O68    O     0.30879   0.35119   0.45013   0.00000  Uiso   1.00
O69    O     0.33387   0.31308   0.40978   0.00000  Uiso   1.00
O70    O     0.31953   0.37193   0.35130   0.00000  Uiso   1.00
O71    O     0.35249   0.40389   0.31636   0.00000  Uiso   1.00
O72    O     0.36958   0.31032   0.33787   0.00000  Uiso   1.00
O73    O     0.40511   0.34205   0.30592   0.00000  Uiso   1.00
C74    C     0.37631   0.41861   0.41629   0.00000  Uiso   1.00
O75    O     0.39114   0.42605   0.38641   0.00000  Uiso   1.00
O76    O     0.41426   0.32979   0.40091   0.00000  Uiso   1.00
O77    O     0.44446   0.36768   0.36935   0.00000  Uiso   1.00
O78    O     0.40577   0.44210   0.35723   0.00000  Uiso   1.00
O79    O     0.42860   0.42259   0.30938   0.00000  Uiso   1.00
C80    C     0.48391   0.77233   0.06894   0.00000  Uiso   1.00
C81    C     0.49770   0.73814   0.06160   0.00000  Uiso   1.00
C82    C     0.53254   0.72984   0.06694   0.00000  Uiso   1.00
C83    C     0.55376   0.75531   0.08022   0.00000  Uiso   1.00
C84    C     0.54033   0.78952   0.08782   0.00000  Uiso   1.00
C85    C     0.50536   0.79805   0.08227   0.00000  Uiso   1.00
C86    C     0.44659   0.78090   0.06188   0.00000  Uiso   1.00
H87    H     0.48153   0.71811   0.05114   0.00000  Uiso   1.00
H88    H     0.54310   0.70360   0.06089   0.00000  Uiso   1.00
H89    H     0.58078   0.74822   0.08427   0.00000  Uiso   1.00
H90    H     0.49492   0.82433   0.08845   0.00000  Uiso   1.00
H91    H     0.43084   0.76606   0.08161   0.00000  Uiso   1.00
H92    H     0.44030   0.80964   0.06516   0.00000  Uiso   1.00
C93    C     0.28274   0.73069   0.87938   0.00000  Uiso   1.00
C94    C     0.26088   0.70705   0.89659   0.00000  Uiso   1.00
C95    C     0.32047   0.72905   0.88732   0.00000  Uiso   1.00
C96    C     0.36029   0.73445   0.93506   0.00000  Uiso   1.00
C97    C     0.36250   0.74380   0.97434   0.00000  Uiso   1.00
C98    C     0.26857   0.75705   0.85705   0.00000  Uiso   1.00
C99    C     0.23287   0.75988   0.85232   0.00000  Uiso   1.00
C100   C     0.22514   0.71031   0.89239   0.00000  Uiso   1.00
H101   H     0.28506   0.77560   0.84364   0.00000  Uiso   1.00
H102   H     0.22205   0.78051   0.83539   0.00000  Uiso   1.00
H103   H     0.18341   0.73973   0.86707   0.00000  Uiso   1.00
H104   H     0.27163   0.68698   0.91431   0.00000  Uiso   1.00
H105   H     0.33441   0.74908   0.87136   0.00000  Uiso   1.00
C106   C     0.40366   0.76254   0.02091   0.00000  Uiso   1.00
C107   C     0.40002   0.74853   0.98339   0.00000  Uiso   1.00
H108   H     0.37188   0.70744   0.93039   0.00000  Uiso   1.00
H109   H     0.34735   0.76890   0.97963   0.00000  Uiso   1.00
H110   H     0.35161   0.72245   0.99107   0.00000  Uiso   1.00
H111   H     0.37467   0.75387   0.91875   0.00000  Uiso   1.00
H112   H     0.33148   0.70231   0.88032   0.00000  Uiso   1.00
H113   H     0.38713   0.78696   0.02488   0.00000  Uiso   1.00
H114   H     0.39577   0.74187   0.04025   0.00000  Uiso   1.00
N115   N     0.43974   0.77068   0.02520   0.00000  Uiso   1.00
N116   N     0.32405   0.73578   0.92539   0.00000  Uiso   1.00
C117   C     0.21110   0.73669   0.87012   0.00000  Uiso   1.00
C118   C     0.43101   0.23914   0.25592   0.00000  Uiso   1.00
C119   C     0.40164   0.22187   0.24500   0.00000  Uiso   1.00
C120   C     0.36860   0.23512   0.25469   0.00000  Uiso   1.00
C121   C     0.36456   0.26571   0.27533   0.00000  Uiso   1.00
C122   C     0.39360   0.28372   0.28589   0.00000  Uiso   1.00
C123   C     0.42683   0.27046   0.27600   0.00000  Uiso   1.00
C124   C     0.46640   0.22444   0.24527   0.00000  Uiso   1.00
H125   H     0.40437   0.19797   0.22919   0.00000  Uiso   1.00
H126   H     0.34609   0.22145   0.24647   0.00000  Uiso   1.00
H127   H     0.33877   0.27527   0.28325   0.00000  Uiso   1.00
H128   H     0.44928   0.28385   0.28492   0.00000  Uiso   1.00
H129   H     0.46900   0.22662   0.21571   0.00000  Uiso   1.00
H130   H     0.48678   0.24038   0.25693   0.00000  Uiso   1.00
C131   C     0.58764   1.00203   0.19121   0.00000  Uiso   1.00
C132   C     0.58780   0.96614   0.18094   0.00000  Uiso   1.00
C133   C     0.56220   0.01679   0.21880   0.00000  Uiso   1.00
C134   C     0.52669   0.06938   0.23262   0.00000  Uiso   1.00
C135   C     0.51262   0.10404   0.21660   0.00000  Uiso   1.00
C136   C     0.61302   1.02400   0.17703   0.00000  Uiso   1.00
C137   C     0.63806   1.01064   0.15282   0.00000  Uiso   1.00
C138   C     0.61346   0.95254   0.15705   0.00000  Uiso   1.00
H139   H     0.61351   0.05152   0.18490   0.00000  Uiso   1.00
H140   H     0.65783   1.02747   0.14227   0.00000  Uiso   1.00
H141   H     0.65908   0.96493   0.12554   0.00000  Uiso   1.00
H142   H     0.56958   0.94850   0.19312   0.00000  Uiso   1.00
H143   H     0.57710   0.02369   0.24266   0.00000  Uiso   1.00
C144   C     0.48795   0.16535   0.23026   0.00000  Uiso   1.00
C145   C     0.49687   0.12875   0.24547   0.00000  Uiso   1.00
H146   H     0.50513   0.05452   0.24465   0.00000  Uiso   1.00
H147   H     0.53417   0.11727   0.20252   0.00000  Uiso   1.00
H148   H     0.49257   0.09830   0.19694   0.00000  Uiso   1.00
H149   H     0.54528   0.07559   0.25369   0.00000  Uiso   1.00
H150   H     0.54313   0.99689   0.22673   0.00000  Uiso   1.00
H151   H     0.51222   0.17732   0.22062   0.00000  Uiso   1.00
H152   H     0.47020   0.16269   0.20763   0.00000  Uiso   1.00
N153   N     0.47099   0.18775   0.25783   0.00000  Uiso   1.00
N154   N     0.54407   0.04818   0.20434   0.00000  Uiso   1.00
C155   C     0.63836   0.97517   0.14301   0.00000  Uiso   1.00
C156   C     0.70694   0.23204   0.62883   0.00000  Uiso   1.00
C157   C     0.68783   0.21595   0.65636   0.00000  Uiso   1.00
C158   C     0.70146   0.18617   0.67378   0.00000  Uiso   1.00
C159   C     0.73408   0.17222   0.66379   0.00000  Uiso   1.00
C160   C     0.75368   0.18827   0.63673   0.00000  Uiso   1.00
C161   C     0.74024   0.21835   0.61928   0.00000  Uiso   1.00
C162   C     0.69065   0.26237   0.60874   0.00000  Uiso   1.00
H163   H     0.66244   0.22658   0.66438   0.00000  Uiso   1.00
H164   H     0.68690   0.17409   0.69532   0.00000  Uiso   1.00
H165   H     0.74452   0.14935   0.67791   0.00000  Uiso   1.00
H166   H     0.75520   0.23063   0.59821   0.00000  Uiso   1.00
H167   H     0.67429   0.27883   0.62765   0.00000  Uiso   1.00
H168   H     0.71071   0.27942   0.59700   0.00000  Uiso   1.00
C169   C     0.51135   0.28675   0.44164   0.00000  Uiso   1.00
C170   C     0.47892   0.30145   0.43154   0.00000  Uiso   1.00
C171   C     0.51469   0.26135   0.47240   0.00000  Uiso   1.00
C172   C     0.56709   0.25632   0.50715   0.00000  Uiso   1.00
C173   C     0.59020   0.27767   0.53066   0.00000  Uiso   1.00
C174   C     0.54137   0.29633   0.42295   0.00000  Uiso   1.00
C175   C     0.53944   0.32066   0.39517   0.00000  Uiso   1.00
C176   C     0.47684   0.32625   0.40351   0.00000  Uiso   1.00
H177   H     0.56641   0.28509   0.43008   0.00000  Uiso   1.00
H178   H     0.56276   0.32794   0.38096   0.00000  Uiso   1.00
H179   H     0.50699   0.35428   0.36362   0.00000  Uiso   1.00
H180   H     0.45560   0.29385   0.44553   0.00000  Uiso   1.00
H181   H     0.52627   0.23572   0.46236   0.00000  Uiso   1.00
C182   C     0.64383   0.27342   0.56808   0.00000  Uiso   1.00
C183   C     0.62167   0.25496   0.54140   0.00000  Uiso   1.00
H184   H     0.56040   0.23141   0.52100   0.00000  Uiso   1.00
H185   H     0.59891   0.30125   0.51575   0.00000  Uiso   1.00
H186   H     0.57528   0.28649   0.55497   0.00000  Uiso   1.00
H187   H     0.58141   0.24971   0.48179   0.00000  Uiso   1.00
H188   H     0.48887   0.25575   0.48409   0.00000  Uiso   1.00
H189   H     0.65622   0.29623   0.55503   0.00000  Uiso   1.00
H190   H     0.62717   0.28277   0.59102   0.00000  Uiso   1.00
N191   N     0.67020   0.24788   0.58033   0.00000  Uiso   1.00
N192   N     0.53527   0.27716   0.50014   0.00000  Uiso   1.00
C193   C     0.50756   0.33563   0.38559   0.00000  Uiso   1.00
C194   C     0.76586   0.09215   0.79378   0.00000  Uiso   1.00
C195   C     0.79418   0.08937   0.81658   0.00000  Uiso   1.00
C196   C     0.82778   0.09010   0.80283   0.00000  Uiso   1.00
C197   C     0.83351   0.09546   0.76662   0.00000  Uiso   1.00
C198   C     0.80561   0.09991   0.74368   0.00000  Uiso   1.00
C199   C     0.77177   0.09785   0.75705   0.00000  Uiso   1.00
C200   C     0.72974   0.08907   0.80861   0.00000  Uiso   1.00
H201   H     0.79082   0.08710   0.84506   0.00000  Uiso   1.00
H202   H     0.84943   0.08779   0.82041   0.00000  Uiso   1.00
H203   H     0.85981   0.09837   0.75681   0.00000  Uiso   1.00
H204   H     0.75033   0.10230   0.73937   0.00000  Uiso   1.00
H205   H     0.72538   0.10709   0.83185   0.00000  Uiso   1.00
H206   H     0.71061   0.09749   0.78831   0.00000  Uiso   1.00
C207   C     0.67796   0.91324   0.97359   0.00000  Uiso   1.00
C208   C     0.68659   0.91062   0.00958   0.00000  Uiso   1.00
C209   C     0.70587   0.91269   0.94537   0.00000  Uiso   1.00
C210   C     0.73039   0.95653   0.90590   0.00000  Uiso   1.00
C211   C     0.72781   0.99641   0.90104   0.00000  Uiso   1.00
C212   C     0.64299   0.91615   0.96411   0.00000  Uiso   1.00
C213   C     0.61703   0.91519  -0.00942   0.00000  Uiso   1.00
C214   C     0.66043   0.90873   0.03588   0.00000  Uiso   1.00
H215   H     0.63613   0.91882   0.93642   0.00000  Uiso   1.00
H216   H     0.59019   0.91690  -0.01687   0.00000  Uiso   1.00
H217   H     0.60509   0.90863   0.04617   0.00000  Uiso   1.00
H218   H     0.71343   0.90833   0.01695   0.00000  Uiso   1.00
H219   H     0.69520   0.90317   0.92007   0.00000  Uiso   1.00
C220   C     0.72729   0.04507   0.85576   0.00000  Uiso   1.00
C221   C     0.72940   0.00547   0.86151   0.00000  Uiso   1.00
H222   H     0.75759   0.94668   0.90153   0.00000  Uiso   1.00
H223   H     0.70265   0.00683   0.91241   0.00000  Uiso   1.00
H224   H     0.74908   0.00877   0.91532   0.00000  Uiso   1.00
H225   H     0.71389   0.94438   0.88577   0.00000  Uiso   1.00
H226   H     0.72737   0.89386   0.95263   0.00000  Uiso   1.00
H227   H     0.70477   0.05729   0.87066   0.00000  Uiso   1.00
H228   H     0.75112   0.05562   0.86631   0.00000  Uiso   1.00
N229   N     0.72402   0.05205   0.81759   0.00000  Uiso   1.00
N230   N     0.71892   0.94826   0.94233   0.00000  Uiso   1.00
C231   C     0.62564   0.91073   0.02628   0.00000  Uiso   1.00
C232   C     0.80062   0.09473   0.47949   0.00000  Uiso   1.00
C233   C     0.80037   0.13147   0.48394   0.00000  Uiso   1.00
C234   C     0.80867   0.14578   0.51662   0.00000  Uiso   1.00
C235   C     0.81661   0.12377   0.54542   0.00000  Uiso   1.00
C236   C     0.81531   0.08706   0.54252   0.00000  Uiso   1.00
C237   C     0.80798   0.07275   0.50889   0.00000  Uiso   1.00
C238   C     0.79677   0.07946   0.44268   0.00000  Uiso   1.00
H239   H     0.79583   0.14902   0.46151   0.00000  Uiso   1.00
H240   H     0.81002   0.17408   0.51941   0.00000  Uiso   1.00
H241   H     0.82324   0.13581   0.56948   0.00000  Uiso   1.00
H242   H     0.80701   0.04434   0.50554   0.00000  Uiso   1.00
H243   H     0.78889   0.10074   0.42358   0.00000  Uiso   1.00
H244   H     0.82245   0.06807   0.43372   0.00000  Uiso   1.00
C245   C     0.72039   0.89199   0.29409   0.00000  Uiso   1.00
C246   C     0.70639   0.91043   0.26491   0.00000  Uiso   1.00
C247   C     0.71312   0.90563   0.33123   0.00000  Uiso   1.00
C248   C     0.72794   0.95352   0.37038   0.00000  Uiso   1.00
C249   C     0.74762   0.98759   0.37043   0.00000  Uiso   1.00
C250   C     0.74443   0.86381   0.28794   0.00000  Uiso   1.00
C251   C     0.75554   0.85536   0.25316   0.00000  Uiso   1.00
C252   C     0.71767   0.90221   0.22981   0.00000  Uiso   1.00
H253   H     0.75566   0.84934   0.31005   0.00000  Uiso   1.00
H254   H     0.77478   0.83422   0.24859   0.00000  Uiso   1.00
H255   H     0.75282   0.86869   0.19774   0.00000  Uiso   1.00
H256   H     0.68799   0.93233   0.26990   0.00000  Uiso   1.00
H257   H     0.72361   0.88661   0.35133   0.00000  Uiso   1.00
C258   C     0.76948   0.03704   0.40684   0.00000  Uiso   1.00
C259   C     0.74768   0.00434   0.40748   0.00000  Uiso   1.00
H260   H     0.70056   0.95912   0.37881   0.00000  Uiso   1.00
H261   H     0.77474   0.98140   0.36132   0.00000  Uiso   1.00
H262   H     0.73558   0.00667   0.35136   0.00000  Uiso   1.00
H263   H     0.74023   0.93420   0.38906   0.00000  Uiso   1.00
H264   H     0.68473   0.90928   0.33597   0.00000  Uiso   1.00
H265   H     0.79586   0.02913   0.39651   0.00000  Uiso   1.00
H266   H     0.75763   0.05709   0.38864   0.00000  Uiso   1.00
N267   N     0.77125   0.05189   0.44278   0.00000  Uiso   1.00
N268   N     0.72965   0.93950   0.33409   0.00000  Uiso   1.00
C269   C     0.74276   0.87483   0.22430   0.00000  Uiso   1.00
C270   C     0.35858   0.47990   0.49516   0.00000  Uiso   1.00
C271   C     0.39112   0.47784   0.51097   0.00000  Uiso   1.00
C272   C     0.41828   0.45760   0.49530   0.00000  Uiso   1.00
C273   C     0.41329   0.43941   0.46366   0.00000  Uiso   1.00
C274   C     0.38093   0.44094   0.44760   0.00000  Uiso   1.00
C275   C     0.35344   0.46101   0.46349   0.00000  Uiso   1.00
C276   C     0.33014   0.50290   0.51196   0.00000  Uiso   1.00
H277   H     0.39544   0.49201   0.53543   0.00000  Uiso   1.00
H278   H     0.44319   0.45576   0.50780   0.00000  Uiso   1.00
H279   H     0.43446   0.42324   0.45218   0.00000  Uiso   1.00
H280   H     0.32833   0.46188   0.45132   0.00000  Uiso   1.00
H281   H     0.33988   0.53005   0.51458   0.00000  Uiso   1.00
H282   H     0.30717   0.50452   0.49475   0.00000  Uiso   1.00
C283   C     0.19351   0.55881   0.72175   0.00000  Uiso   1.00
C284   C     0.19088   0.57058   0.75739   0.00000  Uiso   1.00
C285   C     0.21632   0.52740   0.71105   0.00000  Uiso   1.00
C286   C     0.25379   0.51068   0.66012   0.00000  Uiso   1.00
C287   C     0.27257   0.52724   0.62839   0.00000  Uiso   1.00
C288   C     0.17449   0.57685   0.69538   0.00000  Uiso   1.00
C289   C     0.15420   0.60700   0.70400   0.00000  Uiso   1.00
C290   C     0.17017   0.60079   0.76598   0.00000  Uiso   1.00
H291   H     0.17554   0.56758   0.66804   0.00000  Uiso   1.00
H292   H     0.13949   0.62069   0.68361   0.00000  Uiso   1.00
H293   H     0.13539   0.64181   0.74565   0.00000  Uiso   1.00
H294   H     0.20424   0.55610   0.77827   0.00000  Uiso   1.00
H295   H     0.19959   0.50694   0.70023   0.00000  Uiso   1.00
C296   C     0.30251   0.51578   0.56892   0.00000  Uiso   1.00
C297   C     0.28739   0.49904   0.60258   0.00000  Uiso   1.00
H298   H     0.27161   0.49204   0.67435   0.00000  Uiso   1.00
H299   H     0.25401   0.54520   0.61422   0.00000  Uiso   1.00
H300   H     0.29395   0.54306   0.63817   0.00000  Uiso   1.00
H301   H     0.23168   0.49608   0.64993   0.00000  Uiso   1.00
H302   H     0.23006   0.51597   0.73432   0.00000  Uiso   1.00
H303   H     0.28116   0.52908   0.55399   0.00000  Uiso   1.00
H304   H     0.32138   0.53565   0.57656   0.00000  Uiso   1.00
N305   N     0.32014   0.48845   0.54686   0.00000  Uiso   1.00
N306   N     0.24170   0.53904   0.68437   0.00000  Uiso   1.00
C307   C     0.15222   0.61905   0.73909   0.00000  Uiso   1.00
C308   C     0.20271   0.55328   0.99257   0.00000  Uiso   1.00
C309   C     0.23721   0.54797   0.98061   0.00000  Uiso   1.00
C310   C     0.24660   0.55443   0.94515   0.00000  Uiso   1.00
C311   C     0.22202   0.56759   0.92151   0.00000  Uiso   1.00
C312   C     0.18748   0.57382   0.93283   0.00000  Uiso   1.00
C313   C     0.17770   0.56593   0.96830   0.00000  Uiso   1.00
C314   C     0.19392   0.54978   0.03186   0.00000  Uiso   1.00
H315   H     0.25710   0.53954   0.99894   0.00000  Uiso   1.00
H316   H     0.27332   0.55058   0.93630   0.00000  Uiso   1.00
H317   H     0.23026   0.57432   0.89461   0.00000  Uiso   1.00
H318   H     0.15141   0.57201   0.97757   0.00000  Uiso   1.00
H319   H     0.20144   0.57460   0.04490   0.00000  Uiso   1.00
H320   H     0.16567   0.54716   0.03624   0.00000  Uiso   1.00
C321   C     0.27972   0.41435   0.23703   0.00000  Uiso   1.00
C322   C     0.30249   0.41530   0.26559   0.00000  Uiso   1.00
C323   C     0.29038   0.42785   0.20061   0.00000  Uiso   1.00
C324   C     0.26924   0.46112   0.15006   0.00000  Uiso   1.00
C325   C     0.24524   0.49201   0.13861   0.00000  Uiso   1.00
C326   C     0.24832   0.39761   0.24185   0.00000  Uiso   1.00
C327   C     0.23969   0.38246   0.27478   0.00000  Uiso   1.00
C328   C     0.29486   0.39849   0.29840   0.00000  Uiso   1.00
H329   H     0.23089   0.39565   0.21983   0.00000  Uiso   1.00
H330   H     0.21555   0.36925   0.27804   0.00000  Uiso   1.00
H331   H     0.25618   0.36950   0.32757   0.00000  Uiso   1.00
H332   H     0.32723   0.42719   0.26129   0.00000  Uiso   1.00
H333   H     0.29141   0.40504   0.18186   0.00000  Uiso   1.00
C334   C     0.21834   0.52307   0.08513   0.00000  Uiso   1.00
C335   C     0.24110   0.49197   0.09809   0.00000  Uiso   1.00
H336   H     0.29638   0.46706   0.14248   0.00000  Uiso   1.00
H337   H     0.21942   0.48956   0.15172   0.00000  Uiso   1.00
H338   H     0.25618   0.51728   0.14710   0.00000  Uiso   1.00
H339   H     0.26211   0.43668   0.13602   0.00000  Uiso   1.00
H340   H     0.31668   0.43859   0.20106   0.00000  Uiso   1.00
H341   H     0.19320   0.52394   0.10012   0.00000  Uiso   1.00
H342   H     0.23206   0.54781   0.08993   0.00000  Uiso   1.00
N343   N     0.21239   0.51872   0.04696   0.00000  Uiso   1.00
N344   N     0.26584   0.45570   0.18875   0.00000  Uiso   1.00
C345   C     0.26280   0.38280   0.30293   0.00000  Uiso   1.00
C346   C     0.21656   0.28956   0.44245   0.00000  Uiso   1.00
C347   C     0.20476   0.29061   0.40730   0.00000  Uiso   1.00
C348   C     0.22580   0.30298   0.37959   0.00000  Uiso   1.00
C349   C     0.25888   0.31408   0.38660   0.00000  Uiso   1.00
C350   C     0.27052   0.31499   0.42165   0.00000  Uiso   1.00
C351   C     0.24919   0.30287   0.44969   0.00000  Uiso   1.00
C352   C     0.19661   0.26988   0.47068   0.00000  Uiso   1.00
H353   H     0.17972   0.28073   0.40118   0.00000  Uiso   1.00
H354   H     0.21678   0.30322   0.35246   0.00000  Uiso   1.00
H355   H     0.27535   0.32231   0.36469   0.00000  Uiso   1.00
H356   H     0.25866   0.30212   0.47667   0.00000  Uiso   1.00
H357   H     0.19780   0.24156   0.46258   0.00000  Uiso   1.00
H358   H     0.20893   0.27165   0.49703   0.00000  Uiso   1.00
C359   C     0.97664   0.19679   0.55929   0.00000  Uiso   1.00
C360   C     0.94150   0.18844   0.56070   0.00000  Uiso   1.00
C361   C     0.98833   0.23106   0.54333   0.00000  Uiso   1.00
C362   C     0.04185   0.25452   0.51816   0.00000  Uiso   1.00
C363   C     0.07836   0.24095   0.50748   0.00000  Uiso   1.00
C364   C     1.00102   0.17378   0.57534   0.00000  Uiso   1.00
C365   C     0.99112   0.14178   0.58993   0.00000  Uiso   1.00
C366   C     0.93120   0.15663   0.57666   0.00000  Uiso   1.00
H367   H     1.02778   0.18081   0.57664   0.00000  Uiso   1.00
H368   H     1.01007   0.12463   0.60283   0.00000  Uiso   1.00
H369   H     0.94930   0.10941   0.60466   0.00000  Uiso   1.00
H370   H     0.92212   0.20766   0.55181   0.00000  Uiso   1.00
H371   H     0.99299   0.24931   0.56573   0.00000  Uiso   1.00
C372   C     0.13875   0.25594   0.48860   0.00000  Uiso   1.00
C373   C     0.10221   0.27086   0.49720   0.00000  Uiso   1.00
H374   H     0.03148   0.27279   0.49743   0.00000  Uiso   1.00
H375   H     0.08942   0.22582   0.53027   0.00000  Uiso   1.00
H376   H     0.07691   0.22275   0.48439   0.00000  Uiso   1.00
H377   H     0.04312   0.26896   0.54388   0.00000  Uiso   1.00
H378   H     0.96809   0.24328   0.52621   0.00000  Uiso   1.00
H379   H     0.14986   0.24478   0.51351   0.00000  Uiso   1.00
H380   H     0.13723   0.23448   0.46853   0.00000  Uiso   1.00
N381   N     0.16059   0.28353   0.47400   0.00000  Uiso   1.00
N382   N     0.01982   0.22398   0.52150   0.00000  Uiso   1.00
C383   C     0.95657   0.13286   0.59000   0.00000  Uiso   1.00
C384   C     0.92989   0.01092   0.72529   0.00000  Uiso   1.00
C385   C     0.94482   0.02462   0.75575   0.00000  Uiso   1.00
C386   C     0.94964   0.06079   0.75863   0.00000  Uiso   1.00
C387   C     0.93871   0.08383   0.73169   0.00000  Uiso   1.00
C388   C     0.92288   0.07084   0.70139   0.00000  Uiso   1.00
C389   C     0.91957   0.03402   0.69788   0.00000  Uiso   1.00
C390   C     0.92375   0.97207   0.72319   0.00000  Uiso   1.00
H391   H     0.95246   0.00730   0.77746   0.00000  Uiso   1.00
H392   H     0.96090   0.07113   0.78233   0.00000  Uiso   1.00
H393   H     0.94088   0.11197   0.73538   0.00000  Uiso   1.00
H394   H     0.90688   0.02343   0.67502   0.00000  Uiso   1.00
H395   H     0.90631   0.96492   0.74587   0.00000  Uiso   1.00
H396   H     0.91109   0.96547   0.69791   0.00000  Uiso   1.00
C397   C     0.06106   0.75148   0.74840   0.00000  Uiso   1.00
C398   C     0.07441   0.73507   0.77897   0.00000  Uiso   1.00
C399   C     0.06126   0.79082   0.74438   0.00000  Uiso   1.00
C400   C     0.02511   0.84322   0.73925   0.00000  Uiso   1.00
C401   C     0.98791   0.85770   0.73858   0.00000  Uiso   1.00
C402   C     0.04750   0.73081   0.72146   0.00000  Uiso   1.00
C403   C     0.04684   0.69415   0.72532   0.00000  Uiso   1.00
C404   C     0.07353   0.69835   0.78305   0.00000  Uiso   1.00
H405   H     0.03755   0.74315   0.69749   0.00000  Uiso   1.00
H406   H     0.03686   0.67825   0.70424   0.00000  Uiso   1.00
H407   H     0.05982   0.64937   0.75818   0.00000  Uiso   1.00
H408   H     0.08529   0.75083   0.79970   0.00000  Uiso   1.00
H409   H     0.07509   0.79727   0.71898   0.00000  Uiso   1.00
C410   C     0.95251   0.91493   0.73091   0.00000  Uiso   1.00
C411   C     0.98832   0.89742   0.73267   0.00000  Uiso   1.00
H412   H     0.03851   0.85569   0.76166   0.00000  Uiso   1.00
H413   H     0.97417   0.84517   0.71651   0.00000  Uiso   1.00
H414   H     0.97453   0.85197   0.76440   0.00000  Uiso   1.00
H415   H     0.03841   0.84980   0.71355   0.00000  Uiso   1.00
H416   H     0.07509   0.80275   0.76678   0.00000  Uiso   1.00
H417   H     0.93835   0.90357   0.70845   0.00000  Uiso   1.00
H418   H     0.93827   0.91059   0.75659   0.00000  Uiso   1.00
N419   N     0.95696   0.95259   0.72508   0.00000  Uiso   1.00
N420   N     0.02559   0.80495   0.74408   0.00000  Uiso   1.00
C421   C     0.05960   0.67793   0.75608   0.00000  Uiso   1.00
C422   C     0.03532   0.50961   0.76443   0.00000  Uiso   1.00
C423   C     0.00768   0.53148   0.75277   0.00000  Uiso   1.00
C424   C     0.00094   0.56458   0.76813   0.00000  Uiso   1.00
C425   C     0.02178   0.57616   0.79512   0.00000  Uiso   1.00
C426   C     0.05022   0.55508   0.80627   0.00000  Uiso   1.00
C427   C     0.05728   0.52191   0.79062   0.00000  Uiso   1.00
C428   C     0.03875   0.47238   0.75103   0.00000  Uiso   1.00
H429   H    -0.00916   0.52244   0.73235   0.00000  Uiso   1.00
H430   H    -0.02051   0.58123   0.75916   0.00000  Uiso   1.00
H431   H     0.01645   0.60221   0.80646   0.00000  Uiso   1.00
H432   H     0.07908   0.50553   0.79932   0.00000  Uiso   1.00
H433   H     0.04066   0.47267   0.72135   0.00000  Uiso   1.00
H434   H     0.06224   0.45854   0.76158   0.00000  Uiso   1.00
C435   C     0.91154   0.25738   0.75989   0.00000  Uiso   1.00
C436   C     0.89853   0.25875   0.72526   0.00000  Uiso   1.00
C437   C     0.91479   0.29122   0.77989   0.00000  Uiso   1.00
C438   C     0.94359   0.34663   0.77406   0.00000  Uiso   1.00
C439   C     0.97171   0.36442   0.75228   0.00000  Uiso   1.00
C440   C     0.92745   0.22594   0.77229   0.00000  Uiso   1.00
C441   C     0.93272   0.19716   0.74936   0.00000  Uiso   1.00
C442   C     0.90372   0.22980   0.70204   0.00000  Uiso   1.00
H443   H     0.93828   0.22460   0.79862   0.00000  Uiso   1.00
H444   H     0.94682   0.17373   0.75843   0.00000  Uiso   1.00
H445   H     0.92972   0.17875   0.69569   0.00000  Uiso   1.00
H446   H     0.88632   0.28323   0.71592   0.00000  Uiso   1.00
H447   H     0.92253   0.28619   0.80792   0.00000  Uiso   1.00
C448   C     0.00613   0.41943   0.74774   0.00000  Uiso   1.00
C449   C     0.97567   0.40182   0.76562   0.00000  Uiso   1.00
H450   H     0.91846   0.36135   0.77054   0.00000  Uiso   1.00
H451   H     0.99654   0.34897   0.75501   0.00000  Uiso   1.00
H452   H     0.96476   0.36522   0.72367   0.00000  Uiso   1.00
H453   H     0.95027   0.34634   0.80276   0.00000  Uiso   1.00
H454   H     0.88958   0.30644   0.78007   0.00000  Uiso   1.00
H455   H     0.03030   0.40348   0.75265   0.00000  Uiso   1.00
H456   H     1.00197   0.42174   0.71855   0.00000  Uiso   1.00
N457   N     0.00802   0.45440   0.76341   0.00000  Uiso   1.00
N458   N     0.94157   0.31058   0.76112   0.00000  Uiso   1.00
C459   C     0.92206   0.19960   0.71407   0.00000  Uiso   1.00
C460   C     0.73889   0.75054   0.02873   0.00000  Uiso   1.00
C461   C     0.72355   0.71763   0.02781   0.00000  Uiso   1.00
C462   C     0.69334   0.71189   0.04772   0.00000  Uiso   1.00
C463   C     0.67801   0.73896   0.06864   0.00000  Uiso   1.00
C464   C     0.69309   0.77204   0.07016   0.00000  Uiso   1.00
C465   C     0.72360   0.77761   0.05007   0.00000  Uiso   1.00
C466   C     0.77060   0.75701   1.00598   0.00000  Uiso   1.00
H467   H     0.73492   0.69651   1.01144   0.00000  Uiso   1.00
H468   H     0.68166   0.68643   0.04681   0.00000  Uiso   1.00
H469   H     0.65447   0.73401   0.08374   0.00000  Uiso   1.00
H470   H     0.73517   0.80319   0.05055   0.00000  Uiso   1.00
H471   H     0.76449   0.75206   0.97762   0.00000  Uiso   1.00
H472   H     0.77796   0.78501   1.00835   0.00000  Uiso   1.00
C473   C     0.01871   0.70429   0.98322   0.00000  Uiso   1.00
C474   C     0.04065   0.68396   0.96016   0.00000  Uiso   1.00
C475   C     0.98548   0.68992   0.99774   0.00000  Uiso   1.00
C476   C     0.92383   0.70126   1.00206   0.00000  Uiso   1.00
C477   C     0.89315   0.72092   0.98507   0.00000  Uiso   1.00
C478   C     0.02819   0.73824   0.99295   0.00000  Uiso   1.00
C479   C     0.05915   0.75161   0.97993   0.00000  Uiso   1.00
C480   C     0.07176   0.69739   0.94660   0.00000  Uiso   1.00
H481   H     0.01159   0.75426   1.01071   0.00000  Uiso   1.00
H482   H     0.06617   0.77789   0.98750   0.00000  Uiso   1.00
H483   H     0.10435   0.74262   0.94649   0.00000  Uiso   1.00
H484   H     0.03308   0.65795   0.95225   0.00000  Uiso   1.00
H485   H     0.98542   0.69200   0.02734   0.00000  Uiso   1.00
C486   C     0.82911   0.73660   0.99247   0.00000  Uiso   1.00
C487   C     0.86014   0.71593   0.00746   0.00000  Uiso   1.00
H488   H     0.92007   0.67230   1.00074   0.00000  Uiso   1.00
H489   H     0.89832   0.74956   0.98344   0.00000  Uiso   1.00
H490   H     0.88976   0.71066   0.95766   0.00000  Uiso   1.00
H491   H     0.92518   0.70934   0.03051   0.00000  Uiso   1.00
H492   H     0.98375   0.66152   0.99073   0.00000  Uiso   1.00
H493   H     0.83558   0.76482   0.98929   0.00000  Uiso   1.00
H494   H     0.82300   0.72550   0.96602   0.00000  Uiso   1.00
N495   N     0.79942   0.73354   0.01705   0.00000  Uiso   1.00
N496   N     0.95592   0.71000   0.98311   0.00000  Uiso   1.00
C497   C     0.08085   0.73140   0.95686   0.00000  Uiso   1.00
C498   C     0.63497   0.75566   0.25179   0.00000  Uiso   1.00
C499   C     0.66637   0.74082   0.26367   0.00000  Uiso   1.00
C500   C     0.69764   0.75500   0.25269   0.00000  Uiso   1.00
C501   C     0.69797   0.78400   0.22959   0.00000  Uiso   1.00
C502   C     0.66678   0.79906   0.21704   0.00000  Uiso   1.00
C503   C     0.63539   0.78497   0.22880   0.00000  Uiso   1.00
C504   C     0.60123   0.74082   0.26440   0.00000  Uiso   1.00
H505   H     0.66664   0.71792   0.28109   0.00000  Uiso   1.00
H506   H     0.72169   0.74297   0.26148   0.00000  Uiso   1.00
H507   H     0.72250   0.79391   0.22063   0.00000  Uiso   1.00
H508   H     0.61116   0.79620   0.21931   0.00000  Uiso   1.00
H509   H     0.59866   0.74528   0.29362   0.00000  Uiso   1.00
H510   H     0.57897   0.75484   0.25161   0.00000  Uiso   1.00
C511   C     0.46913   0.52944   0.29270   0.00000  Uiso   1.00
C512   C     0.46335   0.49474   0.30474   0.00000  Uiso   1.00
C513   C     0.50416   0.53994   0.27887   0.00000  Uiso   1.00
C514   C     0.54016   0.59100   0.27407   0.00000  Uiso   1.00
C515   C     0.54275   0.62914   0.28680   0.00000  Uiso   1.00
C516   C     0.44135   0.55446   0.29258   0.00000  Uiso   1.00
C517   C     0.40899   0.54589   0.30635   0.00000  Uiso   1.00
C518   C     0.43052   0.48594   0.31819   0.00000  Uiso   1.00
H519   H     0.44487   0.58084   0.28220   0.00000  Uiso   1.00
H520   H     0.38789   0.56553   0.30647   0.00000  Uiso   1.00
H521   H     0.37818   0.50578   0.32965   0.00000  Uiso   1.00
H522   H     0.48419   0.47478   0.30380   0.00000  Uiso   1.00
H523   H     0.50281   0.54204   0.24935   0.00000  Uiso   1.00
C524   C     0.57151   0.68706   0.27510   0.00000  Uiso   1.00
C525   C     0.57063   0.64800   0.26532   0.00000  Uiso   1.00
H526   H     0.56519   0.57624   0.27792   0.00000  Uiso   1.00
H527   H     0.51737   0.64342   0.28350   0.00000  Uiso   1.00
H528   H     0.54916   0.62922   0.31553   0.00000  Uiso   1.00
H529   H     0.53418   0.59154   0.24518   0.00000  Uiso   1.00
H530   H     0.52440   0.51949   0.28551   0.00000  Uiso   1.00
H531   H     0.54676   0.70058   0.26734   0.00000  Uiso   1.00
H532   H     0.57461   0.68943   0.30441   0.00000  Uiso   1.00
N533   N     0.60063   0.70296   0.25628   0.00000  Uiso   1.00
N534   N     0.51278   0.57390   0.29463   0.00000  Uiso   1.00
C535   C     0.40369   0.51202   0.31959   0.00000  Uiso   1.00
loop_
_geom_bond_atom_site_label_1
_geom_bond_atom_site_label_2
_geom_bond_distance
_geom_bond_site_symmetry_2
_ccdc_geom_bond_type
C0     O8      1.218   .     D
C0     O9      1.400   .     S
C0     C100    1.460   .     S
Er1    O11     2.192   .     S
Er1    O13     2.167   .     S
Er1    O15     2.179   .     S
Er1    O17     2.166   .     S
Er1    O18     2.199   .     S
Er1    O19     2.177   .     S
Er2    O4      2.204   .     S
Er2    O9      2.229   .     S
Er2    O10     2.173   .     S
Er2    O12     2.162   .     S
Er2    O16     2.176   .     S
C3     O16     1.272   .     A
C3     O17     1.269   .     A
C3     C480    1.482   .     S
O4     C14     1.286   .     A
C5     O12     1.265   .     A
C5     O13     1.265   .     A
C5     C404    1.467   .     S
C6     O10     1.273   .     A
C6     O11     1.280   .     A
C6     C290    1.462   .     S
C7     O18     1.272   .     A
C7     O19     1.261   .     A
C7     C426    1.463   .     S
C14    O15     1.273   .     A
C14    C312    1.476   .     S
C20    O28     1.219   .     D
C20    O29     1.394   .     S
C20    C252    1.479   .     S
Er21   O31     2.208   .     S
Er21   O33     2.135   .     S
Er21   O35     2.135   .     S
Er21   O37     2.160   .     S
Er21   O38     2.148   .     S
Er21   O39     2.159   .     S
Er22   O24     2.238   .     S
Er22   O29     2.242   .     S
Er22   O30     2.135   .     S
Er22   O32     2.222   .     S
Er22   O36     2.159   .     S
C23    O36     1.250   .     A
C23    O37     1.260   .     A
C23    C214    1.471   .     S
O24    C34     1.286   .     A
C25    O32     1.282   .     A
C25    O33     1.269   .     A
C25    C464    1.478   .     S
C26    O30     1.270   .     A
C26    O31     1.282   .     A
C26    C502    1.479   .     S
C27    O38     1.282   .     A
C27    O39     1.287   .     A
C27    C84     1.463   .     S
C34    O35     1.281   .     A
C34    C138    1.472   .     S
C40    O48     1.218   .     D
C40    O49     1.401   .     S
C40    C442    1.478   .     S
Er41   O51     2.188   .     S
Er41   O53     2.184   .     S
Er41   O55     2.198   .     S
Er41   O57     2.143   .     S
Er41   O58     2.195   .     S
Er41   O59     2.195   .     S
Er42   O44     2.174   .     S
Er42   O49     2.232   .     S
Er42   O50     2.158   .     S
Er42   O52     2.136   .     S
Er42   O56     2.188   .     S
C43    O56     1.275   .     A
C43    O57     1.266   .     A
C43    C388    1.477   .     S
O44    C54     1.276   .     A
C45    O52     1.260   .     A
C45    O53     1.271   .     A
C45    C198    1.453   .     S
C46    O50     1.271   .     A
C46    O51     1.274   .     A
C46    C160    1.464   .     S
C47    O58     1.278   .     A
C47    O59     1.282   .     A
C47    C236    1.487   .     S
C54    O55     1.274   .     A
C54    C366    1.467   .     S
C60    O68     1.218   .     D
C60    O69     1.396   .     S
C60    C350    1.475   .     S
Er61   O71     2.154   .     S
Er61   O73     2.193   .     S
Er61   O75     2.215   .     S
Er61   O77     2.143   .     S
Er61   O78     2.199   .     S
Er61   O79     2.202   .     S
Er62   O64     2.161   .     S
Er62   O69     2.235   .     S
Er62   O70     2.192   .     S
Er62   O72     2.150   .     S
Er62   O76     2.207   .     S
C63    O76     1.283   .     A
C63    O77     1.272   .     A
C63    C176    1.486   .     S
O64    C74     1.265   .     A
C65    O72     1.263   .     A
C65    O73     1.273   .     A
C65    C122    1.470   .     S
C66    O70     1.278   .     A
C66    O71     1.269   .     A
C66    C328    1.487   .     S
C67    O78     1.273   .     A
C67    O79     1.264   .     A
C67    C518    1.477   .     S
C74    O75     1.283   .     A
C74    C274    1.467   .     S
C80    C81     1.406   .     A
C80    C85     1.406   .     A
C80    C86     1.498   .     S
C81    C82     1.393   .     A
C81    H87     1.083   .     S
C82    C83     1.393   .     A
C82    H88     1.082   .     S
C83    C84     1.404   .     A
C83    H89     1.084   .     S
C84    C85     1.400   .     A
C85    H90     1.082   .     S
C86    H91     1.113   .     S
C86    H92     1.112   .     S
C86    N115    1.462   .     S
C93    C94     1.402   .     A
C93    C95     1.498   .     S
C93    C98     1.405   .     A
C94    C100    1.398   .     A
C94    H104    1.086   .     S
C95    H105    1.114   .     S
C95    H112    1.112   .     S
C95    N116    1.461   .     S
C96    C97     1.521   .     S
C96    H108    1.113   .     S
C96    H111    1.113   .     S
C96    N116    1.457   .     S
C97    C107    1.518   .     S
C97    H109    1.112   .     S
C97    H110    1.112   .     S
C98    C99     1.399   .     A
C98    H101    1.083   .     S
C99    H102    1.083   .     S
C99    C117    1.399   .     A
C100   C117    1.402   .     A
H103   C117    1.083   .     S
C106   H113    1.111   .     S
C106   H114    1.113   .     S
C106   N115    1.456   .     S
C106   C107    1.516   1_554 S
C107   C106    1.516   1_556 S
C118   C119    1.405   .     A
C118   C123    1.408   .     A
C118   C124    1.504   .     S
C119   C120    1.396   .     A
C119   H125    1.083   .     S
C120   C121    1.396   .     A
C120   H126    1.083   .     S
C121   C122    1.404   .     A
C121   H127    1.084   .     S
C122   C123    1.404   .     A
C123   H128    1.084   .     S
C124   H129    1.114   .     S
C124   H130    1.111   .     S
C124   N153    1.471   .     S
C131   C132    1.413   .     A
C131   C136    1.407   .     A
C131   C133    1.504   1_565 S
C132   C138    1.404   .     A
C132   H142    1.083   .     S
C133   H143    1.113   .     S
C133   N154    1.465   .     S
C133   C131    1.504   1_545 S
C133   H150    1.112   1_545 S
C134   C135    1.528   .     S
C134   H146    1.112   .     S
C134   H149    1.113   .     S
C134   N154    1.465   .     S
C135   C145    1.531   .     S
C135   H147    1.112   .     S
C135   H148    1.112   .     S
C136   C137    1.393   .     A
C136   H139    1.085   1_565 S
C137   H140    1.083   .     S
C137   C155    1.393   .     A
C138   C155    1.408   .     A
H139   C136    1.085   1_545 S
H141   C155    1.084   .     S
C144   C145    1.527   .     S
C144   H151    1.113   .     S
C144   H152    1.112   .     S
C144   N153    1.464   .     S
H150   C133    1.112   1_565 S
C156   C157    1.408   .     A
C156   C161    1.409   .     A
C156   C162    1.498   .     S
C157   C158    1.394   .     A
C157   H163    1.083   .     S
C158   C159    1.393   .     A
C158   H164    1.085   .     S
C159   C160    1.404   .     A
C159   H165    1.083   .     S
C160   C161    1.401   .     A
C161   H166    1.083   .     S
C162   H167    1.114   .     S
C162   H168    1.112   .     S
C162   N191    1.463   .     S
C169   C170    1.413   .     A
C169   C171    1.505   .     S
C169   C174    1.403   .     A
C170   C176    1.409   .     A
C170   H180    1.083   .     S
C171   H181    1.115   .     S
C171   H188    1.110   .     S
C171   N192    1.469   .     S
C172   C173    1.527   .     S
C172   H184    1.112   .     S
C172   H187    1.113   .     S
C172   N192    1.466   .     S
C173   C183    1.525   .     S
C173   H185    1.112   .     S
C173   H186    1.112   .     S
C174   C175    1.391   .     A
C174   H177    1.083   .     S
C175   H178    1.082   .     S
C175   C193    1.393   .     A
C176   C193    1.410   .     A
H179   C193    1.084   .     S
C182   C183    1.523   .     S
C182   H189    1.112   .     S
C182   H190    1.112   .     S
C182   N191    1.460   .     S
C194   C195    1.408   .     A
C194   C199    1.408   .     A
C194   C200    1.502   .     S
C195   C196    1.390   .     A
C195   H201    1.076   .     S
C196   C197    1.386   .     A
C196   H202    1.080   .     S
C197   C198    1.403   .     A
C197   H203    1.084   .     S
C198   C199    1.397   .     A
C199   H204    1.083   .     S
C200   H205    1.113   .     S
C200   H206    1.112   .     S
C200   N229    1.465   .     S
C207   C209    1.494   .     S
C207   C212    1.409   .     A
C207   C208    1.400   1_556 A
C208   C214    1.400   .     A
C208   H218    1.082   .     S
C208   C207    1.400   1_554 A
C209   H219    1.111   .     S
C209   H226    1.113   .     S
C209   N230    1.461   .     S
C210   C211    1.520   .     S
C210   H222    1.112   .     S
C210   H225    1.113   .     S
C210   N230    1.463   .     S
C211   C221    1.521   1_565 S
C211   H223    1.112   1_565 S
C211   H224    1.113   1_565 S
C212   H215    1.082   .     S
C212   C213    1.397   1_556 A
C213   H216    1.083   .     S
C213   C231    1.396   .     A
C213   C212    1.397   1_554 A
C214   C231    1.403   .     A
H217   C231    1.082   .     S
C220   C221    1.514   .     S
C220   H227    1.110   .     S
C220   H228    1.103   .     S
C220   N229    1.462   .     S
C221   C211    1.521   1_545 S
H223   C211    1.112   1_545 S
H224   C211    1.113   1_545 S
C232   C233    1.401   .     A
C232   C237    1.407   .     A
C232   C238    1.510   .     S
C233   C234    1.390   .     A
C233   H239    1.084   .     S
C234   C235    1.395   .     A
C234   H240    1.080   .     S
C235   C236    1.398   .     A
C235   H241    1.054   .     S
C236   C237    1.413   .     A
C237   H242    1.086   .     S
C238   H243    1.115   .     S
C238   H244    1.113   .     S
C238   N267    1.467   .     S
C245   C246    1.405   .     A
C245   C247    1.502   .     S
C245   C250    1.403   .     A
C246   C252    1.408   .     A
C246   H256    1.085   .     S
C247   H257    1.114   .     S
C247   H264    1.113   .     S
C247   N268    1.462   .     S
C248   C249    1.525   .     S
C248   H260    1.112   .     S
C248   H263    1.113   .     S
C248   N268    1.460   .     S
C249   H261    1.113   .     S
C249   C259    1.528   1_565 S
C249   H262    1.112   1_565 S
C250   C251    1.396   .     A
C250   H253    1.083   .     S
C251   H254    1.082   .     S
C251   C269    1.397   .     A
C252   C269    1.404   .     A
H255   C269    1.083   .     S
C258   C259    1.526   .     S
C258   H265    1.114   .     S
C258   H266    1.112   .     S
C258   N267    1.465   .     S
C259   C249    1.528   1_545 S
H262   C249    1.112   1_545 S
C270   C271    1.405   .     A
C270   C275    1.410   .     A
C270   C276    1.503   .     S
C271   C272    1.395   .     A
C271   H277    1.083   .     S
C272   C273    1.394   .     A
C272   H278    1.083   .     S
C273   C274    1.403   .     A
C273   H279    1.084   .     S
C274   C275    1.404   .     A
C275   H280    1.084   .     S
C276   H281    1.115   .     S
C276   H282    1.111   .     S
C276   N305    1.467   .     S
C283   C284    1.410   .     A
C283   C285    1.502   .     S
C283   C288    1.407   .     A
C284   C290    1.404   .     A
C284   H294    1.084   .     S
C285   H295    1.113   .     S
C285   H302    1.111   .     S
C285   N306    1.465   .     S
C286   C287    1.526   .     S
C286   H298    1.112   .     S
C286   H301    1.113   .     S
C286   N306    1.464   .     S
C287   C297    1.528   .     S
C287   H299    1.113   .     S
C287   H300    1.111   .     S
C288   C289    1.393   .     A
C288   H291    1.083   .     S
C289   H292    1.083   .     S
C289   C307    1.393   .     A
C290   C307    1.404   .     A
H293   C307    1.085   .     S
C296   C297    1.526   .     S
C296   H303    1.113   .     S
C296   H304    1.112   .     S
C296   N305    1.463   .     S
C308   C309    1.406   .     A
C308   C313    1.414   .     A
C308   C314    1.511   1_556 S
C309   C310    1.393   .     A
C309   H315    1.083   .     S
C310   C311    1.393   .     A
C310   H316    1.083   .     S
C311   C312    1.405   .     A
C311   H317    1.083   .     S
C312   C313    1.409   .     A
C313   H318    1.084   .     S
C314   H319    1.113   .     S
C314   H320    1.111   .     S
C314   N343    1.471   .     S
C314   C308    1.511   1_554 S
C321   C322    1.405   .     A
C321   C323    1.511   .     S
C321   C326    1.402   .     A
C322   C328    1.414   .     A
C322   H332    1.084   .     S
C323   H333    1.114   .     S
C323   H340    1.113   .     S
C323   N344    1.467   .     S
C324   C325    1.531   .     S
C324   H336    1.114   .     S
C324   H339    1.113   .     S
C324   N344    1.468   .     S
C325   C335    1.532   .     S
C325   H337    1.111   .     S
C325   H338    1.112   .     S
C326   C327    1.399   .     A
C326   H329    1.084   .     S
C327   H330    1.083   .     S
C327   C345    1.401   .     A
C328   C345    1.405   .     A
H331   C345    1.081   .     S
C334   C335    1.528   .     S
C334   H341    1.112   .     S
C334   H342    1.113   .     S
C334   N343    1.466   .     S
C346   C347    1.405   .     A
C346   C351    1.412   .     A
C346   C352    1.509   .     S
C347   C348    1.397   .     A
C347   H353    1.084   .     S
C348   C349    1.396   .     A
C348   H354    1.083   .     S
C349   C350    1.401   .     A
C349   H355    1.081   .     S
C350   C351    1.409   .     A
C351   H356    1.084   .     S
C352   H357    1.114   .     S
C352   H358    1.111   .     S
C352   N381    1.471   .     S
C359   C360    1.410   .     A
C359   C361    1.509   .     S
C359   C364    1.404   .     A
C360   C366    1.411   .     A
C360   H370    1.082   .     S
C361   H371    1.112   .     S
C361   H378    1.111   .     S
C361   N382    1.468   1_655 S
C362   C363    1.529   .     S
C362   H374    1.111   .     S
C362   H377    1.113   .     S
C362   N382    1.468   .     S
C363   C373    1.533   .     S
C363   H375    1.113   .     S
C363   H376    1.112   .     S
C364   C365    1.392   .     A
C364   H367    1.083   .     S
C365   H368    1.082   .     S
C365   C383    1.394   .     A
C366   C383    1.406   .     A
H369   C383    1.086   .     S
C372   C373    1.530   .     S
C372   H379    1.113   .     S
C372   H380    1.113   .     S
C372   N381    1.467   .     S
N382   C361    1.468   1_455 S
C384   C385    1.402   .     A
C384   C389    1.403   .     A
C384   C390    1.502   1_545 S
C385   C386    1.394   .     A
C385   H391    1.083   .     S
C386   C387    1.396   .     A
C386   H392    1.080   .     S
C387   C388    1.403   .     A
C387   H393    1.082   .     S
C388   C389    1.412   .     A
C389   H394    1.084   .     S
C390   H395    1.113   .     S
C390   H396    1.111   .     S
C390   N419    1.460   .     S
C390   C384    1.502   1_565 S
C397   C398    1.402   .     A
C397   C399    1.497   .     S
C397   C402    1.404   .     A
C398   C404    1.400   .     A
C398   H408    1.084   .     S
C399   H409    1.113   .     S
C399   H416    1.113   .     S
C399   N420    1.462   .     S
C400   H412    1.114   .     S
C400   H415    1.114   .     S
C400   N420    1.459   .     S
C400   C401    1.522   1_455 S
C401   C411    1.520   .     S
C401   H413    1.112   .     S
C401   H414    1.112   .     S
C401   C400    1.522   1_655 S
C402   C403    1.397   .     A
C402   H405    1.084   .     S
C403   H406    1.083   .     S
C403   C421    1.397   .     A
C404   C421    1.406   .     A
H407   C421    1.084   .     S
C410   C411    1.516   .     S
C410   H417    1.113   .     S
C410   H418    1.113   .     S
C410   N419    1.459   .     S
C422   C423    1.405   .     A
C422   C427    1.407   .     A
C422   C428    1.497   .     S
C423   C424    1.393   .     A
C423   H429    1.083   .     S
C424   C425    1.392   .     A
C424   H430    1.082   .     S
C425   C426    1.405   .     A
C425   H431    1.085   .     S
C426   C427    1.401   .     A
C427   H432    1.084   .     S
C428   H433    1.113   .     S
C428   H434    1.112   .     S
C428   N457    1.461   .     S
C435   C436    1.404   .     A
C435   C437    1.497   .     S
C435   C440    1.402   .     A
C436   C442    1.406   .     A
C436   H446    1.085   .     S
C437   H447    1.114   .     S
C437   H454    1.113   .     S
C437   N458    1.460   .     S
C438   C439    1.523   .     S
C438   H450    1.113   .     S
C438   H453    1.113   .     S
C438   N458    1.455   .     S
C439   C449    1.518   .     S
C439   H451    1.112   .     S
C439   H452    1.112   .     S
C440   C441    1.395   .     A
C440   H443    1.082   .     S
C441   H444    1.082   .     S
C441   C459    1.397   .     A
C442   C459    1.401   .     A
H445   C459    1.077   .     S
C448   H455    1.112   .     S
C448   N457    1.455   .     S
C448   C449    1.520   1_455 S
C448   H456    1.113   1_455 S
C449   C448    1.520   1_655 S
H456   C448    1.113   1_655 S
C460   C461    1.403   .     A
C460   C465    1.404   .     A
C460   C466    1.507   1_554 S
C461   C462    1.397   .     A
C461   H467    1.082   1_554 S
C462   C463    1.396   .     A
C462   H468    1.082   .     S
C463   C464    1.405   .     A
C463   H469    1.084   .     S
C464   C465    1.409   .     A
C465   H470    1.084   .     S
C466   H471    1.113   .     S
C466   H472    1.113   .     S
C466   C460    1.507   1_556 S
C466   N495    1.466   1_556 S
H467   C461    1.082   1_556 S
C473   C474    1.406   .     A
C473   C478    1.402   .     A
C473   C475    1.507   1_455 S
C474   C480    1.410   .     A
C474   H484    1.083   .     S
C475   H492    1.113   .     S
C475   N496    1.466   .     S
C475   C473    1.507   1_655 S
C475   H485    1.113   1_556 S
C476   C477    1.529   .     S
C476   H488    1.113   .     S
C476   N496    1.466   .     S
C476   H491    1.113   1_556 S
C477   H489    1.112   .     S
C477   H490    1.112   .     S
C477   C487    1.530   1_556 S
C478   C479    1.397   .     A
C478   H481    1.084   .     S
C479   H482    1.082   .     S
C479   C497    1.399   .     A
C480   C497    1.405   .     A
H483   C497    1.083   .     S
H485   C475    1.113   1_554 S
C486   H493    1.113   .     S
C486   H494    1.112   .     S
C486   C487    1.526   1_556 S
C486   N495    1.464   1_556 S
C487   C477    1.530   1_554 S
C487   C486    1.526   1_554 S
H491   C476    1.113   1_554 S
N495   C466    1.466   1_554 S
N495   C486    1.464   1_554 S
C498   C499    1.401   .     A
C498   C503    1.404   .     A
C498   C504    1.509   .     S
C499   C500    1.397   .     A
C499   H505    1.084   .     S
C500   C501    1.397   .     A
C500   H506    1.079   .     S
C501   C502    1.406   .     A
C501   H507    1.081   .     S
C502   C503    1.408   .     A
C503   H508    1.082   .     S
C504   H509    1.110   .     S
C504   H510    1.112   .     S
C504   N533    1.467   .     S
C511   C512    1.413   .     A
C511   C513    1.509   .     S
C511   C516    1.405   .     A
C512   C518    1.409   .     A
C512   H522    1.083   .     S
C513   H523    1.112   .     S
C513   H530    1.112   .     S
C513   N534    1.470   .     S
C514   C515    1.530   .     S
C514   H526    1.112   .     S
C514   H529    1.113   .     S
C514   N534    1.467   .     S
C515   C525    1.531   .     S
C515   H527    1.112   .     S
C515   H528    1.112   .     S
C516   C517    1.394   .     A
C516   H519    1.084   .     S
C517   H520    1.083   .     S
C517   C535    1.395   .     A
C518   C535    1.404   .     A
H521   C535    1.084   .     S
C524   C525    1.526   .     S
C524   H531    1.113   .     S
C524   H532    1.112   .     S
C524   N533    1.465   .     S
