data_lcy+N248+E59
_audit_creation_date              2025-01-21
_audit_creation_method            'Materials Studio'
_symmetry_space_group_name_H-M    'P1'
_symmetry_Int_Tables_number       1
_symmetry_cell_setting            triclinic
loop_
_symmetry_equiv_pos_as_xyz
  x,y,z
_cell_length_a                    33.5650
_cell_length_b                    33.5040
_cell_length_c                    35.5931
_cell_angle_alpha                 93.6636
_cell_angle_beta                  92.1840
_cell_angle_gamma                 90.4028
loop_
_atom_site_label
_atom_site_type_symbol
_atom_site_fract_x
_atom_site_fract_y
_atom_site_fract_z
_atom_site_U_iso_or_equiv
_atom_site_adp_type
_atom_site_occupancy
O0     O     0.10885   0.65212   0.91171   0.00000  Uiso   1.00
Yb1    Yb    0.18519   0.60921   0.85902   0.00000  Uiso   1.00
C2     C     0.23598   0.58887   0.81534   0.00000  Uiso   1.00
Yb3    Yb    0.09601   0.59524   0.88370   0.00000  Uiso   1.00
O4     O     0.16557   0.66658   0.88362   0.00000  Uiso   1.00
C5     C     0.10229   0.63730   0.82157   0.00000  Uiso   1.00
C6     C     0.13720   0.67597   0.90556   0.00000  Uiso   1.00
O7     O     0.03386   0.60783   0.87639   0.00000  Uiso   1.00
C8     C     0.02675   0.59694   0.90914   0.00000  Uiso   1.00
O9     O     0.21740   0.60641   0.91263   0.00000  Uiso   1.00
O10    O     0.15739   0.58005   0.90234   0.00000  Uiso   1.00
O11    O     0.13503   0.57028   0.87391   0.00000  Uiso   1.00
O12    O     0.05700   0.58564   0.92815   0.00000  Uiso   1.00
O13    O     0.08154   0.53681   0.85695   0.00000  Uiso   1.00
C14    C     0.18778   0.59434   0.92809   0.00000  Uiso   1.00
C15    C     0.11846   0.53965   0.85441   0.00000  Uiso   1.00
O16    O     0.21403   0.56232   0.83026   0.00000  Uiso   1.00
O17    O     0.22974   0.62648   0.82450   0.00000  Uiso   1.00
O18    O     0.07415   0.63692   0.84214   0.00000  Uiso   1.00
O19    O     0.12839   0.60745   0.82873   0.00000  Uiso   1.00
O20    O     0.67954   0.93755   0.10322   0.00000  Uiso   1.00
Yb21   Yb    0.60206   0.87095   0.08886   0.00000  Uiso   1.00
C22    C     0.57579   0.82224   0.03601   0.00000  Uiso   1.00
Yb23   Yb    0.63820   0.92814   0.14635   0.00000  Uiso   1.00
O24    O     0.64841   0.89663   0.05635   0.00000  Uiso   1.00
C25    C     0.56268   0.93988   0.13264   0.00000  Uiso   1.00
C26    C     0.67653   0.92155   0.06903   0.00000  Uiso   1.00
O27    O     0.64382   0.98787   0.16960   0.00000  Uiso   1.00
C28    C     0.67132   0.97814   0.19303   0.00000  Uiso   1.00
O29    O     0.63821   0.81803   0.08763   0.00000  Uiso   1.00
O30    O     0.64341   0.86563   0.13287   0.00000  Uiso   1.00
O31    O     0.56639   0.85182   0.13434   0.00000  Uiso   1.00
O32    O     0.67881   0.94067   0.19316   0.00000  Uiso   1.00
O33    O     0.59572   0.89540   0.18116   0.00000  Uiso   1.00
C34    C     0.65929   0.83180   0.11455   0.00000  Uiso   1.00
C35    C     0.57158   0.86521   0.16960   0.00000  Uiso   1.00
O36    O     0.60292   0.81234   0.05998   0.00000  Uiso   1.00
O37    O     0.56250   0.85765   0.04146   0.00000  Uiso   1.00
O38    O     0.57794   0.93983   0.16467   0.00000  Uiso   1.00
O39    O     0.58993   0.93229   0.10483   0.00000  Uiso   1.00
O40    O     0.89516   0.14827   0.68961   0.00000  Uiso   1.00
Yb41   Yb    0.85365   0.11334   0.59797   0.00000  Uiso   1.00
C42    C     0.80163   0.14010   0.55555   0.00000  Uiso   1.00
Yb43   Yb    0.91958   0.09679   0.66063   0.00000  Uiso   1.00
O44    O     0.84652   0.15989   0.64515   0.00000  Uiso   1.00
C45    C     0.85739   0.05900   0.67998   0.00000  Uiso   1.00
C46    C     0.86402   0.16698   0.67824   0.00000  Uiso   1.00
O47    O     0.93158   0.06995   0.71282   0.00000  Uiso   1.00
C48    C     0.96737   0.08374   0.71486   0.00000  Uiso   1.00
O49    O     0.87766   0.17496   0.60755   0.00000  Uiso   1.00
O50    O     0.91912   0.12667   0.60691   0.00000  Uiso   1.00
O51    O     0.91438   0.08960   0.59257   0.00000  Uiso   1.00
O52    O     0.97712   0.10445   0.68768   0.00000  Uiso   1.00
O53    O     0.93754   0.04473   0.62910   0.00000  Uiso   1.00
C54    C     0.91312   0.16753   0.60983   0.00000  Uiso   1.00
C55    C     0.92216   0.05232   0.59738   0.00000  Uiso   1.00
O56    O     0.83885   0.14124   0.54801   0.00000  Uiso   1.00
O57    O     0.79291   0.12551   0.58683   0.00000  Uiso   1.00
O58    O     0.88921   0.05924   0.69844   0.00000  Uiso   1.00
O59    O     0.85881   0.08134   0.64846   0.00000  Uiso   1.00
O60    O     0.39402   0.36675   0.42373   0.00000  Uiso   1.00
Yb61   Yb    0.39066   0.40633   0.33509   0.00000  Uiso   1.00
C62    C     0.40651   0.47849   0.35283   0.00000  Uiso   1.00
Yb63   Yb    0.36091   0.34152   0.37507   0.00000  Uiso   1.00
O64    O     0.41974   0.41839   0.39258   0.00000  Uiso   1.00
C65    C     0.30580   0.39295   0.38832   0.00000  Uiso   1.00
C66    C     0.41635   0.39821   0.42275   0.00000  Uiso   1.00
O67    O     0.31419   0.31680   0.40660   0.00000  Uiso   1.00
C68    C     0.33245   0.28333   0.40783   0.00000  Uiso   1.00
O69    O     0.44568   0.39302   0.31066   0.00000  Uiso   1.00
O70    O     0.41474   0.34923   0.34523   0.00000  Uiso   1.00
O71    O     0.35669   0.37531   0.28895   0.00000  Uiso   1.00
O72    O     0.36582   0.28181   0.39177   0.00000  Uiso   1.00
O73    O     0.33177   0.32446   0.32131   0.00000  Uiso   1.00
C74    C     0.44744   0.35997   0.32402   0.00000  Uiso   1.00
C75    C     0.33531   0.34312   0.29083   0.00000  Uiso   1.00
O76    O     0.38370   0.46763   0.32424   0.00000  Uiso   1.00
O77    O     0.41971   0.44999   0.37275   0.00000  Uiso   1.00
O78    O     0.30511   0.35870   0.39907   0.00000  Uiso   1.00
O79    O     0.33860   0.40180   0.36711   0.00000  Uiso   1.00
C80    C     0.24426   0.75272   0.95191   0.00000  Uiso   1.00
C81    C     0.30581   0.78838   0.97077   0.00000  Uiso   1.00
H82    H     0.45289   0.71403   0.93224   0.00000  Uiso   1.00
C83    C     0.30612   0.71631   0.95955   0.00000  Uiso   1.00
C84    C     0.26517   0.71648   0.95109   0.00000  Uiso   1.00
N85    N     0.51855   0.78988   1.00218   0.00000  Uiso   1.00
N86    N     0.17671   0.72244   0.94559   0.00000  Uiso   1.00
O87    O     0.51846   0.72848   0.97269   0.00000  Uiso   1.00
O88    O     0.18932   0.78221   0.92320   0.00000  Uiso   1.00
H89    H     0.57736   0.76595   1.00389   0.00000  Uiso   1.00
H90    H     0.57018   0.80910   0.97687   0.00000  Uiso   1.00
H91    H     0.38018   0.71245   0.92514   0.00000  Uiso   1.00
H92    H     0.44491   0.79438   0.03167   0.00000  Uiso   1.00
H93    H     0.37255   0.79347   0.02374   0.00000  Uiso   1.00
H94    H     0.50190   0.81513   0.00971   0.00000  Uiso   1.00
H95    H     0.24945   0.81687   0.96280   0.00000  Uiso   1.00
H96    H     0.13188   0.73917   0.90524   0.00000  Uiso   1.00
H97    H     0.11420   0.71819   0.94690   0.00000  Uiso   1.00
H98    H     0.32120   0.81657   0.97758   0.00000  Uiso   1.00
H99    H     0.25030   0.68842   0.94244   0.00000  Uiso   1.00
H100   H     0.32168   0.68807   0.95824   0.00000  Uiso   1.00
H101   H     0.18628   0.70045   0.96337   0.00000  Uiso   1.00
C102   C     0.43576   0.73109   0.95273   0.00000  Uiso   1.00
C103   C     0.49922   0.75660   0.98561   0.00000  Uiso   1.00
C104   C     0.56192   0.79509   1.00294   0.00000  Uiso   1.00
C105   C     0.37088   0.75256   0.97408   0.00000  Uiso   1.00
C106   C     0.45494   0.75475   0.98221   0.00000  Uiso   1.00
C107   C     0.39418   0.73004   0.94871   0.00000  Uiso   1.00
C108   C     0.43143   0.77675   0.00795   0.00000  Uiso   1.00
C109   C     0.38987   0.77596   1.00370   0.00000  Uiso   1.00
C110   C     0.26490   0.78858   0.96212   0.00000  Uiso   1.00
C111   C     0.20179   0.75356   0.93949   0.00000  Uiso   1.00
C112   C     0.13792   0.71628   0.92592   0.00000  Uiso   1.00
C113   C     0.32694   0.75233   0.96880   0.00000  Uiso   1.00
C114   C     0.50101   0.05147   0.16561   0.00000  Uiso   1.00
C115   C     0.48775   0.12232   0.17805   0.00000  Uiso   1.00
H116   H     0.51537   0.19168   0.32781   0.00000  Uiso   1.00
C117   C     0.48694   0.07783   0.22899   0.00000  Uiso   1.00
C118   C     0.49569   0.04562   0.20385   0.00000  Uiso   1.00
N119   N     0.47103   0.29553   0.29936   0.00000  Uiso   1.00
N120   N     0.50234   0.97733   0.14610   0.00000  Uiso   1.00
O121   O     0.48159   0.25861   0.34932   0.00000  Uiso   1.00
O122   O     0.53055   0.02474   0.11121   0.00000  Uiso   1.00
H123   H     0.49698   0.32956   0.34728   0.00000  Uiso   1.00
H124   H     0.50516   0.34862   0.30231   0.00000  Uiso   1.00
H125   H     0.51968   0.13142   0.28590   0.00000  Uiso   1.00
H126   H     0.42891   0.24034   0.25061   0.00000  Uiso   1.00
H127   H     0.43353   0.18014   0.20848   0.00000  Uiso   1.00
H128   H     0.46406   0.29620   0.27059   0.00000  Uiso   1.00
H129   H     0.50032   0.09547   0.12357   0.00000  Uiso   1.00
H130   H     0.51247   0.94548   0.09404   0.00000  Uiso   1.00
H131   H     0.50433   0.91519   0.13304   0.00000  Uiso   1.00
H132   H     0.48544   0.15188   0.16757   0.00000  Uiso   1.00
H133   H     0.49942   0.01641   0.21475   0.00000  Uiso   1.00
H134   H     0.48318   0.07244   0.25832   0.00000  Uiso   1.00
H135   H     0.48151   0.97162   0.16621   0.00000  Uiso   1.00
C136   C     0.49697   0.18928   0.30207   0.00000  Uiso   1.00
C137   C     0.47470   0.25945   0.31552   0.00000  Uiso   1.00
C138   C     0.48281   0.33369   0.31911   0.00000  Uiso   1.00
C139   C     0.47744   0.15139   0.24359   0.00000  Uiso   1.00
C140   C     0.47281   0.22128   0.29193   0.00000  Uiso   1.00
C141   C     0.49936   0.15477   0.27811   0.00000  Uiso   1.00
C142   C     0.44914   0.21698   0.25846   0.00000  Uiso   1.00
C143   C     0.45160   0.18245   0.23442   0.00000  Uiso   1.00
C144   C     0.49662   0.09012   0.15293   0.00000  Uiso   1.00
C145   C     0.51242   0.01786   0.13920   0.00000  Uiso   1.00
C146   C     0.51874   0.94306   0.12469   0.00000  Uiso   1.00
C147   C     0.48333   0.11661   0.21646   0.00000  Uiso   1.00
C148   C     0.53824   0.36193   0.48297   0.00000  Uiso   1.00
C149   C     0.60806   0.34999   0.50062   0.00000  Uiso   1.00
H150   H     0.64469   0.21217   0.58780   0.00000  Uiso   1.00
C151   C     0.55805   0.29997   0.51072   0.00000  Uiso   1.00
C152   C     0.52838   0.32447   0.49604   0.00000  Uiso   1.00
N153   N     0.75115   0.18996   0.54077   0.00000  Uiso   1.00
N154   N     0.46776   0.38448   0.47087   0.00000  Uiso   1.00
O155   O     0.69796   0.16209   0.56530   0.00000  Uiso   1.00
O156   O     0.51954   0.41340   0.44482   0.00000  Uiso   1.00
H157   H     0.74756   0.12771   0.52354   0.00000  Uiso   1.00
H158   H     0.78332   0.15620   0.50052   0.00000  Uiso   1.00
H159   H     0.59629   0.26279   0.57122   0.00000  Uiso   1.00
H160   H     0.72052   0.24899   0.50071   0.00000  Uiso   1.00
H161   H     0.67231   0.29949   0.48437   0.00000  Uiso   1.00
H162   H     0.76621   0.21646   0.53598   0.00000  Uiso   1.00
H163   H     0.58718   0.40335   0.47668   0.00000  Uiso   1.00
H164   H     0.45331   0.44265   0.45346   0.00000  Uiso   1.00
H165   H     0.41686   0.41997   0.48058   0.00000  Uiso   1.00
H166   H     0.63863   0.36067   0.50232   0.00000  Uiso   1.00
H167   H     0.49811   0.31312   0.49402   0.00000  Uiso   1.00
H168   H     0.54956   0.27074   0.51922   0.00000  Uiso   1.00
H169   H     0.45711   0.36255   0.48749   0.00000  Uiso   1.00
C170   C     0.65135   0.23148   0.56554   0.00000  Uiso   1.00
C171   C     0.71237   0.19121   0.55175   0.00000  Uiso   1.00
C172   C     0.76995   0.15235   0.52811   0.00000  Uiso   1.00
C173   C     0.63004   0.28482   0.52606   0.00000  Uiso   1.00
C174   C     0.68666   0.22649   0.54578   0.00000  Uiso   1.00
C175   C     0.62344   0.26025   0.55582   0.00000  Uiso   1.00
C176   C     0.69420   0.25238   0.51721   0.00000  Uiso   1.00
C177   C     0.66629   0.28127   0.50758   0.00000  Uiso   1.00
C178   C     0.57847   0.37447   0.48593   0.00000  Uiso   1.00
C179   C     0.50796   0.38802   0.46502   0.00000  Uiso   1.00
C180   C     0.43852   0.41365   0.45816   0.00000  Uiso   1.00
C181   C     0.59832   0.31222   0.51283   0.00000  Uiso   1.00
C182   C     0.71826   1.00694   0.96956   0.00000  Uiso   1.00
C183   C     0.75028   0.05023   0.92687   0.00000  Uiso   1.00
H184   H     0.70011   0.03277   0.76890   0.00000  Uiso   1.00
C185   C     0.70992  -0.00608   0.90168   0.00000  Uiso   1.00
C186   C     0.70240   0.98372   0.93812   0.00000  Uiso   1.00
N187   N     0.80891   0.04693   0.72761   0.00000  Uiso   1.00
N188   N     0.69191   0.95872   0.01530   0.00000  Uiso   1.00
O189   O     0.75098   0.01326   0.71894   0.00000  Uiso   1.00
O190   O     0.72486   0.01675   0.03528   0.00000  Uiso   1.00
H191   H     0.82857   0.00304   0.68749   0.00000  Uiso   1.00
H192   H     0.79707   0.04072   0.66871   0.00000  Uiso   1.00
H193   H     0.68275   0.03056   0.83476   0.00000  Uiso   1.00
H194   H     0.82472   0.04513   0.80378   0.00000  Uiso   1.00
H195   H     0.80698   0.04352   0.86927   0.00000  Uiso   1.00
H196   H     0.82788   0.06504   0.74541   0.00000  Uiso   1.00
H197   H     0.75566   0.05858   0.98693   0.00000  Uiso   1.00
H198   H     0.73393   0.94613   0.05896   0.00000  Uiso   1.00
H199   H     0.71866   0.90424   0.02787   0.00000  Uiso   1.00
H200   H     0.76927   0.07576   0.92287   0.00000  Uiso   1.00
H201   H     0.68459   0.95725   0.94121   0.00000  Uiso   1.00
H202   H     0.69793  -0.02506   0.87809   0.00000  Uiso   1.00
H203   H     0.66696   0.94921  -0.00132   0.00000  Uiso   1.00
C204   C     0.72370   0.03562   0.79056   0.00000  Uiso   1.00
C205   C     0.77401   0.03249   0.74062   0.00000  Uiso   1.00
C206   C     0.82154   0.03545   0.68955   0.00000  Uiso   1.00
C207   C     0.74367   0.03593   0.85685   0.00000  Uiso   1.00
C208   C     0.76376   0.03865   0.78081   0.00000  Uiso   1.00
C209   C     0.71375   0.03427   0.82816   0.00000  Uiso   1.00
C210   C     0.79346   0.04323   0.80986   0.00000  Uiso   1.00
C211   C     0.78341   0.04209   0.84755   0.00000  Uiso   1.00
C212   C     0.74234   0.04036   0.96345   0.00000  Uiso   1.00
C213   C     0.71186   0.99539   0.00849   0.00000  Uiso   1.00
C214   C     0.70797   0.93201   0.04277   0.00000  Uiso   1.00
C215   C     0.73393   0.02720   0.89569   0.00000  Uiso   1.00
C216   C     0.73195   0.98959   0.31567   0.00000  Uiso   1.00
C217   C     0.76487   0.96727   0.37245   0.00000  Uiso   1.00
H218   H     0.76777   0.05509   0.51592   0.00000  Uiso   1.00
C219   C     0.74061   0.03508   0.37173   0.00000  Uiso   1.00
C220   C     0.72608   1.02722   0.33456   0.00000  Uiso   1.00
N221   N     0.88378   0.03318   0.53901   0.00000  Uiso   1.00
N222   N     0.69470   1.00400   0.25624   0.00000  Uiso   1.00
O223   O     0.82342   0.02804   0.56372   0.00000  Uiso   1.00
O224   O     0.74354   0.95873   0.25656   0.00000  Uiso   1.00
H225   H     0.88866  -0.00146   0.58686   0.00000  Uiso   1.00
H226   H     0.93249   0.00125   0.56026   0.00000  Uiso   1.00
H227   H     0.73305   0.04500   0.45395   0.00000  Uiso   1.00
H228   H     0.87126  -0.00383   0.47097   0.00000  Uiso   1.00
H229   H     0.83709   0.98691   0.40986   0.00000  Uiso   1.00
H230   H     0.89974   0.04148   0.51604   0.00000  Uiso   1.00
H231   H     0.75539   0.93014   0.32183   0.00000  Uiso   1.00
H232   H     0.72683   1.00776   0.20631   0.00000  Uiso   1.00
H233   H     0.68458   1.03949   0.21009   0.00000  Uiso   1.00
H234   H     0.77980   0.94368   0.38675   0.00000  Uiso   1.00
H235   H     0.71236   0.05134   0.32009   0.00000  Uiso   1.00
H236   H     0.73752   0.06480   0.38508   0.00000  Uiso   1.00
H237   H     0.67408   1.02074   0.27166   0.00000  Uiso   1.00
C238   C     0.78329   0.04078   0.49269   0.00000  Uiso   1.00
C239   C     0.84300   0.03011   0.53564   0.00000  Uiso   1.00
C240   C     0.90700   0.01884   0.57091   0.00000  Uiso   1.00
C241   C     0.78234   0.01483   0.42731   0.00000  Uiso   1.00
C242   C     0.82256   0.02732   0.49806   0.00000  Uiso   1.00
C243   C     0.76346   0.03501   0.45739   0.00000  Uiso   1.00
C244   C     0.84158   0.00818   0.46757   0.00000  Uiso   1.00
C245   C     0.82174   0.00215   0.43267   0.00000  Uiso   1.00
C246   C     0.75062   0.95947   0.33543   0.00000  Uiso   1.00
C247   C     0.72346   0.98282   0.27455   0.00000  Uiso   1.00
C248   C     0.69565   1.00921   0.21580   0.00000  Uiso   1.00
C249   C     0.76135   1.00551   0.39047   0.00000  Uiso   1.00
C250   C     0.24823   0.54435   0.68515   0.00000  Uiso   1.00
C251   C     0.23588   0.53847   0.61707   0.00000  Uiso   1.00
H252   H     0.34289   0.44560   0.52653   0.00000  Uiso   1.00
C253   C     0.27276   0.48693   0.64745   0.00000  Uiso   1.00
C254   C     0.26820   0.50750   0.68253   0.00000  Uiso   1.00
N255   N     0.26691   0.42693   0.43730   0.00000  Uiso   1.00
N256   N     0.25294   0.55367   0.75550   0.00000  Uiso   1.00
O257   O     0.32824   0.45067   0.45399   0.00000  Uiso   1.00
O258   O     0.24716   0.60609   0.71954   0.00000  Uiso   1.00
H259   H     0.28235   0.45220   0.38674   0.00000  Uiso   1.00
H260   H     0.24584   0.41260   0.38133   0.00000  Uiso   1.00
H261   H     0.32741   0.47066   0.59028   0.00000  Uiso   1.00
H262   H     0.22166   0.46772   0.48896   0.00000  Uiso   1.00
H263   H     0.20599   0.49165   0.55276   0.00000  Uiso   1.00
H264   H     0.23926   0.41740   0.44606   0.00000  Uiso   1.00
H265   H     0.21595   0.58738   0.65301   0.00000  Uiso   1.00
H266   H     0.28470   0.60406   0.78160   0.00000  Uiso   1.00
H267   H     0.29055   0.55846   0.80452   0.00000  Uiso   1.00
H268   H     0.22406   0.55161   0.59200   0.00000  Uiso   1.00
H269   H     0.28210   0.49543   0.70722   0.00000  Uiso   1.00
H270   H     0.28915   0.45917   0.64618   0.00000  Uiso   1.00
H271   H     0.24863   0.52296   0.75745   0.00000  Uiso   1.00
C272   C     0.31275   0.45506   0.53208   0.00000  Uiso   1.00
C273   C     0.29439   0.44371   0.46333   0.00000  Uiso   1.00
C274   C     0.27382   0.42273   0.39686   0.00000  Uiso   1.00
C275   C     0.26544   0.48318   0.57657   0.00000  Uiso   1.00
C276   C     0.28349   0.45438   0.50273   0.00000  Uiso   1.00
C277   C     0.30380   0.46915   0.56863   0.00000  Uiso   1.00
C278   C     0.24473   0.46698   0.51098   0.00000  Uiso   1.00
C279   C     0.23586   0.48127   0.54746   0.00000  Uiso   1.00
C280   C     0.23146   0.55910   0.65204   0.00000  Uiso   1.00
C281   C     0.24896   0.56983   0.72104   0.00000  Uiso   1.00
C282   C     0.26852   0.57683   0.78937   0.00000  Uiso   1.00
C283   C     0.25722   0.50253   0.61426   0.00000  Uiso   1.00
C284   C     0.29483   0.39501   0.17475   0.00000  Uiso   1.00
C285   C     0.29812   0.44182   0.12531   0.00000  Uiso   1.00
H286   H     0.15365   0.52355   0.08043   0.00000  Uiso   1.00
C287   C     0.23397   0.42003   0.14563   0.00000  Uiso   1.00
C288   C     0.25300   0.39662   0.17190   0.00000  Uiso   1.00
N289   N     0.19980   0.55916   0.98521   0.00000  Uiso   1.00
N290   N     0.29852   0.35723   0.23277   0.00000  Uiso   1.00
O291   O     0.14102   0.53988   0.01026   0.00000  Uiso   1.00
O292   O     0.34732   0.35346   0.19122   0.00000  Uiso   1.00
H293   H     0.15257   0.60043   0.97657   0.00000  Uiso   1.00
H294   H     0.20156   0.62177   0.98290   0.00000  Uiso   1.00
H295   H     0.18735   0.48519   0.12790   0.00000  Uiso   1.00
H296   H     0.24545   0.49215   0.00239   0.00000  Uiso   1.00
H297   H     0.27865   0.45279   0.04952   0.00000  Uiso   1.00
H298   H     0.23018   0.55370   0.98263   0.00000  Uiso   1.00
H299   H     0.34946   0.41794   0.15336   0.00000  Uiso   1.00
H300   H     0.33533   0.30622   0.23972   0.00000  Uiso   1.00
H301   H     0.28919   0.30624   0.26303   0.00000  Uiso   1.00
H302   H     0.31619   0.45966   0.10804   0.00000  Uiso   1.00
H303   H     0.23479   0.37867   0.18889   0.00000  Uiso   1.00
H304   H     0.20171   0.41961   0.14343   0.00000  Uiso   1.00
H305   H     0.27319   0.37210   0.24225   0.00000  Uiso   1.00
C306   C     0.18091   0.50818   0.07336   0.00000  Uiso   1.00
C307   C     0.17722   0.53675   0.01035   0.00000  Uiso   1.00
C308   C     0.18433   0.59566   0.96989   0.00000  Uiso   1.00
C309   C     0.23588   0.46612   0.09267   0.00000  Uiso   1.00
C310   C     0.19725   0.51150   0.03793   0.00000  Uiso   1.00
C311   C     0.20014   0.48605   0.10050   0.00000  Uiso   1.00
C312   C     0.23270   0.49122   0.02980   0.00000  Uiso   1.00
C313   C     0.25175   0.46866   0.05685   0.00000  Uiso   1.00
C314   C     0.31717   0.41819   0.15144   0.00000  Uiso   1.00
C315   C     0.31522   0.36739   0.20003   0.00000  Uiso   1.00
C316   C     0.31431   0.32567   0.25563   0.00000  Uiso   1.00
C317   C     0.25626   0.44252   0.12166   0.00000  Uiso   1.00
C318   C     0.02536   0.22653   0.55031   0.00000  Uiso   1.00
C319   C     0.06680   0.25113   0.50171   0.00000  Uiso   1.00
H320   H     0.23461   0.27204   0.54063   0.00000  Uiso   1.00
C321   C     0.09717   0.21673   0.55309   0.00000  Uiso   1.00
C322   C     0.05966   0.21118   0.56785   0.00000  Uiso   1.00
N323   N     0.27431   0.25252   0.43494   0.00000  Uiso   1.00
N324   N     0.97632   0.19525   0.59068   0.00000  Uiso   1.00
O325   O     0.28532   0.28208   0.49263   0.00000  Uiso   1.00
O326   O     0.96381   0.25387   0.56540   0.00000  Uiso   1.00
H327   H     0.33505   0.24526   0.45351   0.00000  Uiso   1.00
H328   H     0.32091   0.22070   0.40890   0.00000  Uiso   1.00
H329   H     0.16801   0.26038   0.56194   0.00000  Uiso   1.00
H330   H     0.19180   0.24711   0.42513   0.00000  Uiso   1.00
H331   H     0.12555   0.23407   0.44708   0.00000  Uiso   1.00
H332   H     0.25423   0.24103   0.41387   0.00000  Uiso   1.00
H333   H     0.00339   0.25840   0.50274   0.00000  Uiso   1.00
H334   H     0.93140   0.22889   0.61958   0.00000  Uiso   1.00
H335   H     0.95848   0.19431   0.64668   0.00000  Uiso   1.00
H336   H     0.06894   0.26706   0.47632   0.00000  Uiso   1.00
H337   H     0.05787   0.19656   0.59401   0.00000  Uiso   1.00
H338   H     0.12312   0.20533   0.56776   0.00000  Uiso   1.00
H339   H     0.99319   0.16912   0.58984   0.00000  Uiso   1.00
C340   C     0.21120   0.26408   0.51966   0.00000  Uiso   1.00
C341   C     0.26142   0.26591   0.46969   0.00000  Uiso   1.00
C342   C     0.31680   0.24843   0.42716   0.00000  Uiso   1.00
C343   C     0.14164   0.24561   0.50629   0.00000  Uiso   1.00
C344   C     0.21941   0.26012   0.48110   0.00000  Uiso   1.00
C345   C     0.17301   0.25694   0.53204   0.00000  Uiso   1.00
C346   C     0.18760   0.24983   0.45511   0.00000  Uiso   1.00
C347   C     0.14920   0.24267   0.46763   0.00000  Uiso   1.00
C348   C     0.02929   0.24613   0.51682   0.00000  Uiso   1.00
C349   C     0.98649   0.22591   0.56890   0.00000  Uiso   1.00
C350   C     0.94500   0.19868   0.61831   0.00000  Uiso   1.00
C351   C     0.10130   0.23728   0.52017   0.00000  Uiso   1.00
C352   C     0.04760   0.75980   0.77210   0.00000  Uiso   1.00
C353   C     0.00400   0.81218   0.75025   0.00000  Uiso   1.00
H354   H    -0.00067   0.96380   0.83822   0.00000  Uiso   1.00
C355   C     0.05422   0.82815   0.79959   0.00000  Uiso   1.00
C356   C     0.06646   0.78829   0.79775   0.00000  Uiso   1.00
N357   N     1.00202   1.03307   0.74814   0.00000  Uiso   1.00
N358   N     0.08336   0.70097   0.79624   0.00000  Uiso   1.00
O359   O     0.97494   0.02701   0.80602   0.00000  Uiso   1.00
O360   O     0.05610   0.69900   0.73753   0.00000  Uiso   1.00
H361   H     0.98313   0.08898   0.77338   0.00000  Uiso   1.00
H362   H     1.02463   0.09125   0.74318   0.00000  Uiso   1.00
H363   H     0.01323   0.89222   0.83717   0.00000  Uiso   1.00
H364   H     0.99137   0.95678   0.71659   0.00000  Uiso   1.00
H365   H     1.00676   0.88569   0.71557   0.00000  Uiso   1.00
H366   H     1.01802   1.01920   0.72645   0.00000  Uiso   1.00
H367   H     0.00099   0.75112   0.72843   0.00000  Uiso   1.00
H368   H     0.13878   0.67329   0.78979   0.00000  Uiso   1.00
H369   H     0.09864   0.64778   0.76307   0.00000  Uiso   1.00
H370   H    -0.02029   0.82084   0.73168   0.00000  Uiso   1.00
H371   H     0.09171   0.78044   0.81550   0.00000  Uiso   1.00
H372   H     0.07006   0.84955   0.81891   0.00000  Uiso   1.00
H373   H     0.08578   0.71576   0.82298   0.00000  Uiso   1.00
C374   C     0.00073   0.94700   0.81128   0.00000  Uiso   1.00
C375   C     0.98967   1.01015   0.77855   0.00000  Uiso   1.00
C376   C     0.99560   0.07609   0.74689   0.00000  Uiso   1.00
C377   C     0.01175   0.88346   0.77630   0.00000  Uiso   1.00
C378   C     0.99563   0.96626   0.77752   0.00000  Uiso   1.00
C379   C     0.00896   0.90612   0.81069   0.00000  Uiso   1.00
C380   C     0.99676   0.94328   0.74312   0.00000  Uiso   1.00
C381   C     1.00490   0.90235   0.74253   0.00000  Uiso   1.00
C382   C     0.01609   0.77226   0.74853   0.00000  Uiso   1.00
C383   C     0.06231   0.71802   0.76763   0.00000  Uiso   1.00
C384   C     0.10680   0.66452   0.79025   0.00000  Uiso   1.00
C385   C     0.02311   0.84063   0.77564   0.00000  Uiso   1.00
C386   C     0.91439   0.29333   0.72537   0.00000  Uiso   1.00
C387   C     0.93696   0.35786   0.75354   0.00000  Uiso   1.00
H388   H     0.09192   0.36922   0.83201   0.00000  Uiso   1.00
C389   C     0.98392   0.30369   0.74569   0.00000  Uiso   1.00
C390   C     0.95342   0.27887   0.72954   0.00000  Uiso   1.00
N391   N     0.11293   0.48272   0.80824   0.00000  Uiso   1.00
N392   N     0.88071   0.22732   0.71662   0.00000  Uiso   1.00
O393   O     0.11573   0.44094   0.85511   0.00000  Uiso   1.00
O394   O     0.85457   0.28129   0.69084   0.00000  Uiso   1.00
H395   H     0.16491   0.49758   0.84242   0.00000  Uiso   1.00
H396   H     0.15292   0.53060   0.80554   0.00000  Uiso   1.00
H397   H     0.03914   0.32466   0.80478   0.00000  Uiso   1.00
H398   H     1.03782   0.46784   0.77704   0.00000  Uiso   1.00
H399   H     0.98664   0.42307   0.74834   0.00000  Uiso   1.00
H400   H     0.10105   0.48922   0.78178   0.00000  Uiso   1.00
H401   H     0.87670   0.34495   0.73439   0.00000  Uiso   1.00
H402   H     0.82369   0.21532   0.68901   0.00000  Uiso   1.00
H403   H     0.83576   0.18665   0.72858   0.00000  Uiso   1.00
H404   H     0.92962   0.38807   0.76335   0.00000  Uiso   1.00
H405   H     0.96057   0.24857   0.71984   0.00000  Uiso   1.00
H406   H     0.01376   0.29182   0.74810   0.00000  Uiso   1.00
H407   H     0.90308   0.21598   0.73404   0.00000  Uiso   1.00
C408   C     0.06899   0.38128   0.81383   0.00000  Uiso   1.00
C409   C     0.10072   0.44904   0.82473   0.00000  Uiso   1.00
C410   C     0.14024   0.51251   0.82725   0.00000  Uiso   1.00
C411   C     1.00852   0.37031   0.77443   0.00000  Uiso   1.00
C412   C     0.06947   0.42198   0.80646   0.00000  Uiso   1.00
C413   C     0.03892   0.35570   0.79799   0.00000  Uiso   1.00
C414   C     1.03919   0.43654   0.78272   0.00000  Uiso   1.00
C415   C     1.00925   0.41095   0.76679   0.00000  Uiso   1.00
C416   C     0.90658   0.33316   0.73714   0.00000  Uiso   1.00
C417   C     0.88152   0.26704   0.70952   0.00000  Uiso   1.00
C418   C     0.84831   0.19981   0.70370   0.00000  Uiso   1.00
C419   C     0.97607   0.34352   0.75786   0.00000  Uiso   1.00
C420   C     0.91675   0.68387   0.94517   0.00000  Uiso   1.00
C421   C     0.85953   0.72814   0.95048   0.00000  Uiso   1.00
H422   H     0.84113   0.81988   0.09277   0.00000  Uiso   1.00
C423   C     0.90155   0.71739   0.00559   0.00000  Uiso   1.00
C424   C     0.92551   0.69184  -0.01604   0.00000  Uiso   1.00
N425   N     0.72279   0.80524   0.09565   0.00000  Uiso   1.00
N426   N     0.97320   0.63639   0.93602   0.00000  Uiso   1.00
O427   O     0.77919   0.80895   0.13154   0.00000  Uiso   1.00
O428   O     0.92385   0.63994   0.89222   0.00000  Uiso   1.00
H429   H     0.68972   0.78356   0.13934   0.00000  Uiso   1.00
H430   H     0.71172   0.83261   0.14986   0.00000  Uiso   1.00
H431   H     0.88562   0.79274   0.04496   0.00000  Uiso   1.00
H432   H     0.74284   0.75293   0.03680   0.00000  Uiso   1.00
H433   H     0.78740   0.72618  -0.01066   0.00000  Uiso   1.00
H434   H     0.70948   0.79997   0.06879   0.00000  Uiso   1.00
H435   H     0.87581   0.69724   0.89901   0.00000  Uiso   1.00
H436   H    -0.03477   0.58161   0.90193   0.00000  Uiso   1.00
H437   H    -0.01410   0.57741   0.94854   0.00000  Uiso   1.00
H438   H     0.83360   0.74133   0.93729   0.00000  Uiso   1.00
H439   H     0.94939   0.67696  -0.00148   0.00000  Uiso   1.00
H440   H     0.90800   0.72144   0.03566   0.00000  Uiso   1.00
H441   H     0.98964   0.65087   0.95840   0.00000  Uiso   1.00
C442   C     0.82886   0.80004   0.06993   0.00000  Uiso   1.00
C443   C     0.76326   0.80169   0.10046   0.00000  Uiso   1.00
C444   C     0.69683   0.81249   0.12747   0.00000  Uiso   1.00
C445   C     0.83988   0.75735   0.01365   0.00000  Uiso   1.00
C446   C     0.78838   0.78891   0.06857   0.00000  Uiso   1.00
C447   C     0.85431   0.78455   0.04267   0.00000  Uiso   1.00
C448   C     0.77354   0.76313   0.03839   0.00000  Uiso   1.00
C449   C     0.79908   0.74766   0.01111   0.00000  Uiso   1.00
C450   C     0.88380   0.70296   0.92864   0.00000  Uiso   1.00
C451   C     0.93837   0.65254   0.92268   0.00000  Uiso   1.00
C452   C    -0.01410   0.59609   0.92386   0.00000  Uiso   1.00
C453   C     0.86794   0.73513  -0.01076   0.00000  Uiso   1.00
C454   C     0.49164   0.56702   0.29898   0.00000  Uiso   1.00
C455   C     0.53259   0.62432   0.28653   0.00000  Uiso   1.00
H456   H     0.46847   0.72369   0.17400   0.00000  Uiso   1.00
C457   C     0.48770   0.59468   0.23745   0.00000  Uiso   1.00
C458   C     0.47580   0.56606   0.26186   0.00000  Uiso   1.00
N459   N     0.55322   0.80581   0.20114   0.00000  Uiso   1.00
N460   N     0.43474   0.53941   0.33117   0.00000  Uiso   1.00
O461   O     0.50732   0.78511   0.15646   0.00000  Uiso   1.00
O462   O     0.49786   0.52360   0.34750   0.00000  Uiso   1.00
H463   H     0.51390   0.85360   0.18972   0.00000  Uiso   1.00
H464   H     0.55136   0.86447   0.22602   0.00000  Uiso   1.00
H465   H     0.46141   0.66051   0.20269   0.00000  Uiso   1.00
H466   H     0.58997   0.73456   0.21822   0.00000  Uiso   1.00
H467   H     0.58340   0.67064   0.24611   0.00000  Uiso   1.00
H468   H     0.57429   0.79855   0.22189   0.00000  Uiso   1.00
H469   H     0.53402   0.59631   0.33896   0.00000  Uiso   1.00
H470   H     0.38935   0.53759   0.37040   0.00000  Uiso   1.00
H471   H     0.43756   0.52372   0.38820   0.00000  Uiso   1.00
H472   H     0.55312   0.64760   0.29763   0.00000  Uiso   1.00
H473   H     0.45353   0.54382   0.25208   0.00000  Uiso   1.00
H474   H     0.47446   0.59363   0.20915   0.00000  Uiso   1.00
H475   H     0.41567   0.55434   0.31291   0.00000  Uiso   1.00
C476   C     0.49396   0.71217   0.18927   0.00000  Uiso   1.00
C477   C     0.52980   0.77653   0.18251   0.00000  Uiso   1.00
C478   C     0.54565   0.84843   0.19796   0.00000  Uiso   1.00
C479   C     0.52162   0.66056   0.22747   0.00000  Uiso   1.00
C480   C     0.52915   0.73503   0.19489   0.00000  Uiso   1.00
C481   C     0.49006   0.67564   0.20557   0.00000  Uiso   1.00
C482   C     0.56174   0.71876   0.21451   0.00000  Uiso   1.00
C483   C     0.55802   0.68190   0.23050   0.00000  Uiso   1.00
C484   C     0.52141   0.59517   0.31047   0.00000  Uiso   1.00
C485   C     0.47515   0.54133   0.32685   0.00000  Uiso   1.00
C486   C     0.41690   0.52128   0.36293   0.00000  Uiso   1.00
C487   C     0.51501   0.62528   0.25005   0.00000  Uiso   1.00
loop_
_geom_bond_atom_site_label_1
_geom_bond_atom_site_label_2
_geom_bond_distance
_geom_bond_site_symmetry_2
_ccdc_geom_bond_type
O0     C6      1.273   .     A
O0     Yb3     2.127   .     S
Yb1    Yb3     3.191   .     S
Yb1    O4      2.178   .     S
Yb1    O9      2.165   .     S
Yb1    O10     2.119   .     S
Yb1    O11     2.223   .     S
Yb1    O16     2.084   .     S
Yb1    O17     2.073   .     S
Yb1    O19     2.152   .     S
C2     O16     1.303   .     A
C2     O17     1.302   .     A
C2     C282    1.499   .     S
Yb3    O7      2.141   .     S
Yb3    O10     2.213   .     S
Yb3    O12     2.130   .     S
Yb3    O13     2.165   .     S
Yb3    O18     2.207   .     S
Yb3    O19     2.331   .     S
O4     C6      1.282   .     A
C5     O18     1.217   .     D
C5     O19     1.364   .     S
C5     C384    1.496   .     S
C6     C112    1.491   .     S
O7     C8      1.274   .     A
C8     O12     1.272   .     A
C8     C452    1.487   .     S
O9     C14     1.232   .     D
O10    C14     1.405   .     S
O11    C15     1.310   .     A
O13    C15     1.249   .     A
C14    C308    1.495   .     S
C15    C410    1.499   .     S
O20    C26     1.298   .     A
O20    Yb23    2.145   .     S
Yb21   Yb23    2.934   .     S
Yb21   O24     2.178   .     S
Yb21   O29     2.154   .     S
Yb21   O30     2.070   .     S
Yb21   O31     2.176   .     S
Yb21   O36     2.158   .     S
Yb21   O37     2.129   .     S
Yb21   O39     2.143   .     S
C22    O36     1.284   .     A
C22    O37     1.276   .     A
C22    C104    1.498   1_554 S
Yb23   O27     2.120   .     S
Yb23   O30     2.128   .     S
Yb23   O32     2.131   .     S
Yb23   O33     2.249   .     S
Yb23   O38     2.179   .     S
Yb23   O39     2.162   .     S
O24    C26     1.304   .     A
C25    O38     1.232   .     D
C25    O39     1.386   .     S
C25    C146    1.497   .     S
C26    C214    1.490   .     S
O27    C28     1.278   .     A
C28    O32     1.282   .     A
C28    C248    1.496   .     S
O29    C34     1.232   .     D
O30    C34     1.391   .     S
O31    C35     1.310   .     A
O33    C35     1.326   .     A
C34    C444    1.491   .     S
C35    C478    1.492   .     S
O40    C46     1.288   .     A
O40    Yb43    2.138   .     S
Yb41   Yb43    3.159   .     S
Yb41   O44     2.238   .     S
Yb41   O49     2.212   .     S
Yb41   O50     2.246   .     S
Yb41   O51     2.204   .     S
Yb41   O56     2.106   .     S
Yb41   O57     2.110   .     S
Yb41   O59     2.153   .     S
C42    O56     1.289   .     A
C42    O57     1.287   .     A
C42    C172    1.494   .     S
Yb43   O47     2.141   .     S
Yb43   O50     2.214   .     S
Yb43   O52     2.131   .     S
Yb43   O53     2.117   .     S
Yb43   O58     2.176   .     S
Yb43   O59     2.123   .     S
O44    C46     1.303   .     A
C45    O58     1.232   .     D
C45    O59     1.390   .     S
C45    C206    1.496   .     S
C46    C418    1.492   .     S
O47    C48     1.282   .     A
C48    O52     1.277   .     A
C48    C376    1.491   .     S
O49    C54     1.218   .     D
O50    C54     1.383   .     S
O51    C55     1.299   .     A
O53    C55     1.265   .     A
C54    C350    1.498   .     S
C55    C240    1.492   .     S
O60    C66     1.292   .     A
O60    Yb63    2.145   .     S
Yb61   Yb63    2.865   .     S
Yb61   O64     2.245   .     S
Yb61   O69     2.110   .     S
Yb61   O70     2.129   .     S
Yb61   O71     2.168   .     S
Yb61   O76     2.127   .     S
Yb61   O77     2.125   .     S
Yb61   O79     2.132   .     S
C62    O76     1.282   .     A
C62    O77     1.296   .     A
C62    C486    1.491   .     S
Yb63   O67     2.154   .     S
Yb63   O70     2.153   .     S
Yb63   O72     2.129   .     S
Yb63   O73     2.157   .     S
Yb63   O78     2.155   .     S
Yb63   O79     2.191   .     S
O64    C66     1.313   .     A
C65    O78     1.233   .     D
C65    O79     1.399   .     S
C65    C274    1.497   .     S
C66    C180    1.500   .     S
O67    C68     1.284   .     A
C68    O72     1.277   .     A
C68    C342    1.496   .     S
O69    C74     1.233   .     D
O70    C74     1.413   .     S
O71    C75     1.298   .     A
O73    C75     1.295   .     A
C74    C138    1.492   .     S
C75    C316    1.497   .     S
C80    C84     1.406   .     A
C80    C110    1.403   .     A
C80    C111    1.477   .     S
C81    H98     1.082   .     S
C81    C110    1.396   .     A
C81    C113    1.404   .     A
H82    C102    1.083   .     S
C83    C84     1.396   .     A
C83    H100    1.083   .     S
C83    C113    1.405   .     A
C84    H99     1.083   .     S
N85    C103    1.374   .     S
N85    C104    1.464   .     S
N85    H94     1.044   1_556 S
N86    H101    1.046   .     S
N86    C111    1.369   .     S
N86    C112    1.462   .     S
O87    C103    1.221   .     D
O88    C111    1.221   .     D
H89    C104    1.110   .     S
H90    C104    1.110   .     S
H91    C107    1.084   .     S
H92    C108    1.082   .     S
H93    C109    1.083   1_554 S
H94    N85     1.044   1_554 S
H95    C110    1.083   .     S
H96    C112    1.111   .     S
H97    C112    1.112   .     S
C102   C106    1.407   .     A
C102   C107    1.397   .     A
C103   C106    1.487   .     S
C104   C22     1.498   1_556 S
C105   C107    1.404   .     A
C105   C109    1.403   .     A
C105   C113    1.480   .     S
C106   C108    1.408   1_556 A
C108   C106    1.408   1_554 A
C108   C109    1.397   1_554 A
C109   H93     1.083   1_556 S
C109   C108    1.397   1_556 A
C114   C118    1.406   .     A
C114   C144    1.405   .     A
C114   C145    1.482   .     S
C115   H132    1.083   .     S
C115   C144    1.398   .     A
C115   C147    1.406   .     A
H116   C136    1.084   .     S
C117   C118    1.397   .     A
C117   H134    1.083   .     S
C117   C147    1.405   .     A
C118   H133    1.082   .     S
N119   H128    1.043   .     S
N119   C137    1.376   .     S
N119   C138    1.464   .     S
N120   H135    1.045   .     S
N120   C146    1.460   .     S
N120   C145    1.436   1_565 S
O121   C137    1.219   .     D
O122   C145    1.221   .     D
H123   C138    1.110   .     S
H124   C138    1.112   .     S
H125   C141    1.084   .     S
H126   C142    1.083   .     S
H127   C143    1.083   .     S
H129   C144    1.083   .     S
H130   C146    1.111   .     S
H131   C146    1.111   .     S
C136   C140    1.406   .     A
C136   C141    1.397   .     A
C137   C140    1.484   .     S
C139   C141    1.406   .     A
C139   C143    1.406   .     A
C139   C147    1.485   .     S
C140   C142    1.406   .     A
C142   C143    1.399   .     A
C145   N120    1.436   1_545 S
C148   C152    1.408   .     A
C148   C178    1.410   .     A
C148   C179    1.497   .     S
C149   H166    1.083   .     S
C149   C178    1.400   .     A
C149   C181    1.405   .     A
H150   C170    1.083   .     S
C151   C152    1.402   .     A
C151   H168    1.083   .     S
C151   C181    1.408   .     A
C152   H167    1.081   .     S
N153   H162    1.045   .     S
N153   C171    1.374   .     S
N153   C172    1.466   .     S
N154   H169    1.042   .     S
N154   C179    1.378   .     S
N154   C180    1.469   .     S
O155   C171    1.221   .     D
O156   C179    1.219   .     D
H157   C172    1.113   .     S
H158   C172    1.110   .     S
H159   C175    1.082   .     S
H160   C176    1.082   .     S
H161   C177    1.082   .     S
H163   C178    1.083   .     S
H164   C180    1.113   .     S
H165   C180    1.111   .     S
C170   C174    1.406   .     A
C170   C175    1.399   .     A
C171   C174    1.490   .     S
C173   C175    1.406   .     A
C173   C177    1.407   .     A
C173   C181    1.493   .     S
C174   C176    1.407   .     A
C176   C177    1.401   .     A
C182   C186    1.407   .     A
C182   C212    1.409   1_565 A
C182   C213    1.485   1_556 S
C183   H200    1.083   .     S
C183   C212    1.398   .     A
C183   C215    1.402   .     A
H184   C204    1.083   .     S
C185   H202    1.083   .     S
C185   C215    1.403   .     A
C185   C186    1.394   1_545 A
C186   H201    1.080   .     S
C186   C185    1.394   1_565 A
N187   H196    1.044   .     S
N187   C205    1.372   .     S
N187   C206    1.464   .     S
N188   H203    1.043   .     S
N188   C213    1.434   .     S
N188   C214    1.458   .     S
O189   C205    1.222   .     D
O190   C213    1.220   1_545 D
H191   C206    1.111   .     S
H192   C206    1.108   .     S
H193   C209    1.083   .     S
H194   C210    1.081   .     S
H195   C211    1.083   .     S
H197   C212    1.083   .     S
H198   C214    1.112   .     S
H199   C214    1.110   .     S
C204   C208    1.406   .     A
C204   C209    1.395   .     A
C205   C208    1.486   .     S
C207   C209    1.403   .     A
C207   C211    1.404   .     A
C207   C215    1.479   .     S
C208   C210    1.409   .     A
C210   C211    1.399   .     A
C212   C182    1.409   1_545 A
C213   C182    1.485   1_554 S
C213   O190    1.220   1_565 D
C216   C220    1.409   .     A
C216   C246    1.404   .     A
C216   C247    1.483   .     S
C217   H234    1.083   .     S
C217   C246    1.393   .     A
C217   C249    1.403   .     A
H218   C238    1.082   .     S
C219   H236    1.083   .     S
C219   C220    1.401   1_545 A
C219   C249    1.403   1_545 A
C220   C219    1.401   1_565 A
C220   H235    1.082   1_565 S
N221   H230    1.045   .     S
N221   C239    1.372   .     S
N221   C240    1.461   .     S
N222   H237    1.044   .     S
N222   C247    1.371   .     S
N222   C248    1.462   .     S
O223   C239    1.222   .     D
O224   C247    1.221   .     D
H225   C240    1.111   .     S
H226   C240    1.107   .     S
H227   C243    1.081   .     S
H228   C244    1.082   .     S
H229   C245    1.081   1_565 S
H231   C246    1.083   .     S
H232   C248    1.113   .     S
H233   C248    1.111   .     S
H235   C220    1.082   1_545 S
C238   C242    1.406   .     A
C238   C243    1.401   .     A
C239   C242    1.477   .     S
C241   C243    1.404   .     A
C241   C245    1.402   .     A
C241   C249    1.479   1_545 S
C242   C244    1.402   .     A
C244   C245    1.389   .     A
C245   H229    1.081   1_545 S
C249   C219    1.403   1_565 A
C249   C241    1.479   1_565 S
C250   C254    1.408   .     A
C250   C280    1.406   .     A
C250   C281    1.490   .     S
C251   H268    1.083   .     S
C251   C280    1.398   .     A
C251   C283    1.405   .     A
H252   C272    1.084   .     S
C253   C254    1.402   .     A
C253   H270    1.083   .     S
C253   C283    1.406   .     A
C254   H269    1.082   .     S
N255   H264    1.045   .     S
N255   C273    1.373   .     S
N255   C274    1.465   .     S
N256   H271    1.045   .     S
N256   C281    1.374   .     S
N256   C282    1.468   .     S
O257   C273    1.221   .     D
O258   C281    1.221   .     D
H259   C274    1.112   .     S
H260   C274    1.111   .     S
H261   C277    1.083   .     S
H262   C278    1.082   .     S
H263   C279    1.083   .     S
H265   C280    1.083   .     S
H266   C282    1.114   .     S
H267   C282    1.111   .     S
C272   C276    1.405   .     A
C272   C277    1.399   .     A
C273   C276    1.485   .     S
C275   C277    1.407   .     A
C275   C279    1.406   .     A
C275   C283    1.488   .     S
C276   C278    1.406   .     A
C278   C279    1.399   .     A
C284   C288    1.405   .     A
C284   C314    1.406   .     A
C284   C315    1.484   .     S
C285   H302    1.083   .     S
C285   C314    1.399   .     A
C285   C317    1.407   .     A
H286   C306    1.083   .     S
C287   C288    1.397   .     A
C287   H304    1.082   .     S
C287   C317    1.407   .     A
C288   H303    1.082   .     S
N289   H298    1.044   .     S
N289   C308    1.461   .     S
N289   C307    1.438   1_556 S
N290   H305    1.044   .     S
N290   C315    1.373   .     S
N290   C316    1.465   .     S
O291   C307    1.220   .     D
O292   C315    1.221   .     D
H293   C308    1.112   .     S
H294   C308    1.111   .     S
H295   C311    1.082   .     S
H296   C312    1.082   .     S
H297   C313    1.083   .     S
H299   C314    1.084   .     S
H300   C316    1.110   .     S
H301   C316    1.111   .     S
C306   C310    1.405   .     A
C306   C311    1.396   .     A
C307   C310    1.482   .     S
C307   N289    1.438   1_554 S
C309   C311    1.406   .     A
C309   C313    1.408   .     A
C309   C317    1.489   .     S
C310   C312    1.405   .     A
C312   C313    1.400   .     A
C318   C322    1.405   .     A
C318   C348    1.407   .     A
C318   C349    1.486   1_455 S
C319   H336    1.083   .     S
C319   C348    1.401   .     A
C319   C351    1.406   .     A
H320   C340    1.083   .     S
C321   C322    1.398   .     A
C321   H338    1.083   .     S
C321   C351    1.407   .     A
C322   H337    1.083   .     S
N323   H332    1.042   .     S
N323   C341    1.375   .     S
N323   C342    1.469   .     S
N324   H339    1.045   .     S
N324   C349    1.375   .     S
N324   C350    1.467   .     S
O325   C341    1.221   .     D
O326   C349    1.221   .     D
H327   C342    1.112   .     S
H328   C342    1.112   .     S
H329   C345    1.083   .     S
H330   C346    1.080   .     S
H331   C347    1.083   .     S
H333   C348    1.083   .     S
H334   C350    1.112   .     S
H335   C350    1.109   .     S
C340   C344    1.408   .     A
C340   C345    1.395   .     A
C341   C344    1.497   .     S
C343   C345    1.403   .     A
C343   C347    1.406   .     A
C343   C351    1.489   .     S
C344   C346    1.412   .     A
C346   C347    1.404   .     A
C349   C318    1.486   1_655 S
C352   C356    1.408   .     A
C352   C382    1.407   .     A
C352   C383    1.488   .     S
C353   H370    1.083   .     S
C353   C382    1.399   .     A
C353   C385    1.405   .     A
H354   C374    1.083   .     S
C355   C356    1.398   .     A
C355   H372    1.083   .     S
C355   C385    1.405   .     A
C356   H371    1.082   .     S
N357   H366    1.044   .     S
N357   C375    1.438   .     S
N357   C376    1.462   1_565 S
N358   H373    1.045   .     S
N358   C383    1.374   .     S
N358   C384    1.466   .     S
O359   C375    1.221   1_545 D
O360   C383    1.221   .     D
H361   C376    1.110   .     S
H362   C376    1.112   .     S
H363   C379    1.083   .     S
H364   C380    1.082   .     S
H365   C381    1.083   .     S
H367   C382    1.083   .     S
H368   C384    1.112   .     S
H369   C384    1.111   .     S
C374   C379    1.398   .     A
C374   C378    1.405   1_455 A
C375   C378    1.484   .     S
C375   O359    1.221   1_565 D
C376   N357    1.462   1_545 S
C377   C379    1.405   .     A
C377   C385    1.486   .     S
C377   C381    1.406   1_455 A
C378   C380    1.406   .     A
C378   C374    1.405   1_655 A
C380   C381    1.399   .     A
C381   C377    1.406   1_655 A
C386   C390    1.406   .     A
C386   C416    1.402   .     A
C386   C417    1.479   .     S
C387   H404    1.083   .     S
C387   C416    1.395   .     A
C387   C419    1.407   .     A
H388   C408    1.084   .     S
C389   C390    1.397   .     A
C389   C419    1.406   .     A
C389   H406    1.083   1_655 S
C390   H405    1.083   .     S
N391   H400    1.045   .     S
N391   C409    1.372   .     S
N391   C410    1.466   .     S
N392   H407    1.045   .     S
N392   C417    1.371   .     S
N392   C418    1.462   .     S
O393   C409    1.223   .     D
O394   C417    1.220   .     D
H395   C410    1.111   .     S
H396   C410    1.108   .     S
H397   C413    1.083   .     S
H398   C414    1.082   .     S
H399   C415    1.083   .     S
H401   C416    1.084   .     S
H402   C418    1.111   .     S
H403   C418    1.110   .     S
H406   C389    1.083   1_455 S
C408   C412    1.405   .     A
C408   C413    1.398   .     A
C409   C412    1.485   .     S
C411   C415    1.406   .     A
C411   C419    1.486   .     S
C411   C413    1.407   1_655 A
C412   C414    1.407   1_455 A
C413   C411    1.407   1_455 A
C414   C415    1.396   .     A
C414   C412    1.407   1_655 A
C420   C450    1.409   .     A
C420   C451    1.489   .     S
C420   C424    1.409   1_556 A
C421   H438    1.083   .     S
C421   C450    1.398   .     A
C421   C453    1.402   1_556 A
H422   C442    1.083   .     S
C423   C424    1.394   .     A
C423   H440    1.084   .     S
C423   C453    1.403   .     A
C424   H439    1.080   .     S
C424   C420    1.409   1_554 A
N425   H434    1.044   .     S
N425   C443    1.369   .     S
N425   C444    1.464   .     S
N426   H441    1.043   .     S
N426   C451    1.373   .     S
N426   C452    1.463   1_655 S
O427   C443    1.220   .     D
O428   C451    1.220   .     D
H429   C444    1.110   .     S
H430   C444    1.112   .     S
H431   C447    1.083   .     S
H432   C448    1.081   .     S
H433   C449    1.083   .     S
H435   C450    1.083   .     S
H436   C452    1.110   .     S
H437   C452    1.111   .     S
C442   C446    1.405   .     A
C442   C447    1.395   .     A
C443   C446    1.483   .     S
C445   C447    1.403   .     A
C445   C449    1.404   .     A
C445   C453    1.478   .     S
C446   C448    1.408   .     A
C448   C449    1.397   .     A
C452   N426    1.463   1_455 S
C453   C421    1.402   1_554 A
C454   C458    1.404   .     A
C454   C484    1.400   .     A
C454   C485    1.475   .     S
C455   H472    1.082   .     S
C455   C484    1.395   .     A
C455   C487    1.408   .     A
H456   C476    1.083   .     S
C457   C458    1.400   .     A
C457   H474    1.084   .     S
C457   C487    1.410   .     A
C458   H473    1.084   .     S
N459   H468    1.044   .     S
N459   C477    1.373   .     S
N459   C478    1.463   .     S
N460   H475    1.047   .     S
N460   C485    1.372   .     S
N460   C486    1.463   .     S
O461   C477    1.223   .     D
O462   C485    1.222   .     D
H463   C478    1.112   .     S
H464   C478    1.113   .     S
H465   C481    1.082   .     S
H466   C482    1.081   .     S
H467   C483    1.083   .     S
H469   C484    1.082   .     S
H470   C486    1.110   .     S
H471   C486    1.113   .     S
C476   C480    1.404   .     A
C476   C481    1.395   .     A
C477   C480    1.485   .     S
C479   C481    1.407   .     A
C479   C483    1.408   .     A
C479   C487    1.491   .     S
C480   C482    1.407   .     A
C482   C483    1.399   .     A
