data_lcy+N123+E59
_audit_creation_date              2025-01-21
_audit_creation_method            'Materials Studio'
_symmetry_space_group_name_H-M    'P1'
_symmetry_Int_Tables_number       1
_symmetry_cell_setting            triclinic
loop_
_symmetry_equiv_pos_as_xyz
  x,y,z
_cell_length_a                    37.6564
_cell_length_b                    35.0376
_cell_length_c                    34.3411
_cell_angle_alpha                 94.2733
_cell_angle_beta                  101.3959
_cell_angle_gamma                 89.2626
loop_
_atom_site_label
_atom_site_type_symbol
_atom_site_fract_x
_atom_site_fract_y
_atom_site_fract_z
_atom_site_U_iso_or_equiv
_atom_site_adp_type
_atom_site_occupancy
Ce0    Ce    0.14396   0.60208   0.82559   0.00000  Uiso   1.00
Ce1    Ce    0.10318   0.64251   0.89575   0.00000  Uiso   1.00
C2     C     0.17702   0.63073   0.91391   0.00000  Uiso   1.00
C3     C     0.14748   0.52761   0.79760   0.00000  Uiso   1.00
C4     C     0.10381   0.68758   0.81658   0.00000  Uiso   1.00
C5     C     0.06811   0.59532   0.81615   0.00000  Uiso   1.00
C6     C     0.07305   0.67790   0.95372   0.00000  Uiso   1.00
C7     C     0.13188   0.55662   0.90786   0.00000  Uiso   1.00
O8     O     0.15713   0.62558   0.93689   0.00000  Uiso   1.00
O9     O     0.15853   0.64509   0.87950   0.00000  Uiso   1.00
O10    O     0.15709   0.53872   0.83434   0.00000  Uiso   1.00
O11    O     0.13580   0.55424   0.77526   0.00000  Uiso   1.00
O12    O     0.12447   0.66141   0.80425   0.00000  Uiso   1.00
O13    O     0.09067   0.68699   0.84870   0.00000  Uiso   1.00
O14    O     0.08367   0.60016   0.78978   0.00000  Uiso   1.00
O15    O     0.09245   0.59200   0.85013   0.00000  Uiso   1.00
O16    O     0.05723   0.65056   0.93024   0.00000  Uiso   1.00
O17    O     0.10381   0.68751   0.94722   0.00000  Uiso   1.00
O18    O     0.11963   0.58642   0.92589   0.00000  Uiso   1.00
O19    O     0.14062   0.55652   0.87292   0.00000  Uiso   1.00
Ce20   Ce    0.59894   0.92129   0.11297   0.00000  Uiso   1.00
Ce21   Ce    0.65190   0.83982   0.10018   0.00000  Uiso   1.00
C22    C     0.57701   0.84235   0.06645   0.00000  Uiso   1.00
C23    C     0.58378   0.95227   0.18308   0.00000  Uiso   1.00
C24    C     0.64523   0.91658   0.04198   0.00000  Uiso   1.00
C25    C     0.67334   0.92033   0.14719   0.00000  Uiso   1.00
C26    C     0.66910   0.80842   0.03118   0.00000  Uiso   1.00
C27    C     0.60799   0.84462   0.17247   0.00000  Uiso   1.00
O28    O     0.59278   0.81417   0.07762   0.00000  Uiso   1.00
O29    O     0.60105   0.87061   0.06890   0.00000  Uiso   1.00
O30    O     0.57940   0.91698   0.17166   0.00000  Uiso   1.00
O31    O     0.59532   0.97196   0.15863   0.00000  Uiso   1.00
O32    O     0.62300   0.93650   0.05954   0.00000  Uiso   1.00
O33    O     0.65808   0.88313   0.05182   0.00000  Uiso   1.00
O34    O     0.65715   0.94822   0.13587   0.00000  Uiso   1.00
O35    O     0.65003   0.89110   0.14395   0.00000  Uiso   1.00
O36    O     0.67282   0.84387   0.04219   0.00000  Uiso   1.00
O37    O     0.65625   0.78901   0.05495   0.00000  Uiso   1.00
O38    O     0.62852   0.82368   0.15359   0.00000  Uiso   1.00
O39    O     0.59516   0.87802   0.16236   0.00000  Uiso   1.00
Ce40   Ce    0.90774   0.12644   0.60279   0.00000  Uiso   1.00
Ce41   Ce    0.83821   0.10720   0.66190   0.00000  Uiso   1.00
C42    C     0.85803   0.05491   0.60339   0.00000  Uiso   1.00
C43    C     0.94582   0.13762   0.54477   0.00000  Uiso   1.00
C44    C     0.93785   0.10649   0.67640   0.00000  Uiso   1.00
C45    C     0.87970   0.18634   0.64836   0.00000  Uiso   1.00
C46    C     0.85939   0.11251   0.74195   0.00000  Uiso   1.00
C47    C     0.82165   0.13928   0.56962   0.00000  Uiso   1.00
O48    O     0.82802   0.05837   0.61019   0.00000  Uiso   1.00
O49    O     0.88162   0.07755   0.63001   0.00000  Uiso   1.00
O50    O     0.93456   0.10502   0.55078   0.00000  Uiso   1.00
O51    O     0.93817   0.16454   0.56851   0.00000  Uiso   1.00
O52    O     0.95683   0.11675   0.65196   0.00000  Uiso   1.00
O53    O     0.90272   0.10922   0.66410   0.00000  Uiso   1.00
O54    O     0.89331   0.19045   0.62010   0.00000  Uiso   1.00
O55    O     0.88384   0.14930   0.65788   0.00000  Uiso   1.00
O56    O     0.84718   0.14106   0.72246   0.00000  Uiso   1.00
O57    O     0.86055   0.08125   0.72077   0.00000  Uiso   1.00
O58    O     0.81438   0.13948   0.60492   0.00000  Uiso   1.00
O59    O     0.85288   0.13197   0.56103   0.00000  Uiso   1.00
Ce60   Ce    0.40406   0.43479   0.37303   0.00000  Uiso   1.00
Ce61   Ce    0.35562   0.37034   0.41442   0.00000  Uiso   1.00
C62    C     0.43226   0.36823   0.43246   0.00000  Uiso   1.00
C63    C     0.43332   0.45986   0.31442   0.00000  Uiso   1.00
C64    C     0.35412   0.44766   0.44361   0.00000  Uiso   1.00
C65    C     0.33673   0.40672   0.33148   0.00000  Uiso   1.00
C66    C     0.31950   0.31380   0.44075   0.00000  Uiso   1.00
C67    C     0.38908   0.33896   0.34004   0.00000  Uiso   1.00
O68    O     0.41304   0.34110   0.43276   0.00000  Uiso   1.00
O69    O     0.41194   0.40008   0.42732   0.00000  Uiso   1.00
O70    O     0.45138   0.44024   0.34161   0.00000  Uiso   1.00
O71    O     0.40118   0.46884   0.31862   0.00000  Uiso   1.00
O72    O     0.35361   0.44458   0.40539   0.00000  Uiso   1.00
O73    O     0.35020   0.41727   0.46099   0.00000  Uiso   1.00
O74    O     0.36409   0.40637   0.31806   0.00000  Uiso   1.00
O75    O     0.34369   0.41997   0.37093   0.00000  Uiso   1.00
O76    O     0.30446   0.33499   0.41372   0.00000  Uiso   1.00
O77    O     0.35235   0.32239   0.45552   0.00000  Uiso   1.00
O78    O     0.36780   0.33084   0.36309   0.00000  Uiso   1.00
O79    O     0.40354   0.37237   0.34050   0.00000  Uiso   1.00
C80    C     0.29937   0.67169   0.98043   0.00000  Uiso   1.00
C81    C     0.35076   0.70300   0.02483   0.00000  Uiso   1.00
H82    H     0.48280   0.72342   0.96599   0.00000  Uiso   1.00
C83    C     0.35005   0.69439   0.95409   0.00000  Uiso   1.00
C84    C     0.31628   0.67645   0.94812   0.00000  Uiso   1.00
N85    N     0.51854   0.80982   0.04969   0.00000  Uiso   1.00
N86    N     0.23928   0.65180   0.93662   0.00000  Uiso   1.00
O87    O     0.51896   0.78854   0.98488   0.00000  Uiso   1.00
O88    O     0.25586   0.63528   0.00119   0.00000  Uiso   1.00
H89    H     0.53340   0.85644   0.02006   0.00000  Uiso   1.00
H90    H     0.52595   0.86790   0.06973   0.00000  Uiso   1.00
H91    H     0.42543   0.68887   0.95792   0.00000  Uiso   1.00
H92    H     0.44733   0.80576   0.04997   0.00000  Uiso   1.00
H93    H     0.38966   0.77201   0.04107   0.00000  Uiso   1.00
H94    H     0.51322   0.80104   0.07639   0.00000  Uiso   1.00
H95    H     0.30474   0.68141   0.04430   0.00000  Uiso   1.00
H96    H     0.22029   0.59560   0.94117   0.00000  Uiso   1.00
H97    H     0.22246   0.60778   0.89188   0.00000  Uiso   1.00
H98    H     0.36388   0.71274   0.05481   0.00000  Uiso   1.00
H99    H     0.30362   0.66590   0.91823   0.00000  Uiso   1.00
H100   H     0.36227   0.69798   0.92858   0.00000  Uiso   1.00
H101   H     0.24010   0.67426   0.91843   0.00000  Uiso   1.00
C102   C     0.46264   0.73412   0.98257   0.00000  Uiso   1.00
C103   C     0.50364   0.78847   0.01303   0.00000  Uiso   1.00
C104   C     0.53732   0.84608   0.05047   0.00000  Uiso   1.00
C105   C     0.40303   0.72781  -0.00123   0.00000  Uiso   1.00
C106   C     0.46954   0.76694   0.00890   0.00000  Uiso   1.00
C107   C     0.42980   0.71454   0.97781   0.00000  Uiso   1.00
C108   C     0.44299   0.78002   0.03015   0.00000  Uiso   1.00
C109   C     0.41003   0.76070   0.02509   0.00000  Uiso   1.00
C110   C     0.31711   0.68483   0.01888   0.00000  Uiso   1.00
C111   C     0.26397   0.65194   0.97422   0.00000  Uiso   1.00
C112   C     0.21591   0.61911   0.92071   0.00000  Uiso   1.00
C113   C     0.36756   0.70803   0.99251   0.00000  Uiso   1.00
C114   C     0.52207   0.05934   0.22283   0.00000  Uiso   1.00
C115   C     0.47913   0.10187   0.24844   0.00000  Uiso   1.00
H116   H     0.49478   0.26455   0.24832   0.00000  Uiso   1.00
C117   C     0.53659   0.12675   0.23977   0.00000  Uiso   1.00
C118   C     0.54585   0.09042   0.22525   0.00000  Uiso   1.00
N119   N     0.42294   0.28314   0.32027   0.00000  Uiso   1.00
N120   N     0.56815   1.00817   0.22306   0.00000  Uiso   1.00
O121   O     0.46424   0.31000   0.29199   0.00000  Uiso   1.00
O122   O     0.50980   0.99701   0.19470   0.00000  Uiso   1.00
H123   H     0.39834   0.32493   0.28127   0.00000  Uiso   1.00
H124   H     0.36795   0.29373   0.29709   0.00000  Uiso   1.00
H125   H     0.51423   0.20199   0.22499   0.00000  Uiso   1.00
H126   H     0.45231   0.21244   0.33993   0.00000  Uiso   1.00
H127   H     0.47155   0.15016   0.31612   0.00000  Uiso   1.00
H128   H     0.41612   0.26068   0.33577   0.00000  Uiso   1.00
H129   H     0.46938   0.04216   0.23182   0.00000  Uiso   1.00
H130   H     0.55725   0.95084   0.23258   0.00000  Uiso   1.00
H131   H     0.60396   0.96445   0.24488   0.00000  Uiso   1.00
H132   H     0.45300   0.10580   0.25687   0.00000  Uiso   1.00
H133   H     0.57162   0.08682   0.21594   0.00000  Uiso   1.00
H134   H     0.55568   0.15007   0.24199   0.00000  Uiso   1.00
H135   H     0.58840   1.02786   0.23607   0.00000  Uiso   1.00
C136   C     0.48979   0.23994   0.26378   0.00000  Uiso   1.00
C137   C     0.45316   0.28096   0.30355   0.00000  Uiso   1.00
C138   C     0.39367   0.30999   0.30731   0.00000  Uiso   1.00
C139   C     0.49377   0.17110   0.26819   0.00000  Uiso   1.00
C140   C     0.47057   0.24375   0.29506   0.00000  Uiso   1.00
C141   C     0.50112   0.20410   0.25041   0.00000  Uiso   1.00
C142   C     0.46532   0.21088   0.31454   0.00000  Uiso   1.00
C143   C     0.47661   0.17499   0.30104   0.00000  Uiso   1.00
C144   C     0.48832   0.06561   0.23374   0.00000  Uiso   1.00
C145   C     0.53291   1.01985   0.21189   0.00000  Uiso   1.00
C146   C     0.57830   0.96780   0.22304   0.00000  Uiso   1.00
C147   C     0.50332   0.13275   0.25197   0.00000  Uiso   1.00
C148   C     0.54431   0.29352   0.44144   0.00000  Uiso   1.00
C149   C     0.60931   0.28241   0.45342   0.00000  Uiso   1.00
H150   H     0.67298   0.18476   0.57990   0.00000  Uiso   1.00
C151   C     0.57119   0.24512   0.48546   0.00000  Uiso   1.00
C152   C     0.54072   0.26523   0.46730   0.00000  Uiso   1.00
N153   N     0.76451   0.17294   0.54495   0.00000  Uiso   1.00
N154   N     0.48867   0.33080   0.44566   0.00000  Uiso   1.00
O155   O     0.72285   0.13062   0.55357   0.00000  Uiso   1.00
O156   O     0.51161   0.32686   0.38988   0.00000  Uiso   1.00
H157   H     0.77875   0.11699   0.52424   0.00000  Uiso   1.00
H158   H     0.80271   0.15548   0.51020   0.00000  Uiso   1.00
H159   H     0.62089   0.22393   0.55238   0.00000  Uiso   1.00
H160   H     0.71715   0.19538   0.47468   0.00000  Uiso   1.00
H161   H     0.66440   0.23215   0.44583   0.00000  Uiso   1.00
H162   H     0.77033   0.20189   0.54402   0.00000  Uiso   1.00
H163   H     0.58240   0.32404   0.41545   0.00000  Uiso   1.00
H164   H     0.48125   0.38250   0.41543   0.00000  Uiso   1.00
H165   H     0.48225   0.38747   0.46773   0.00000  Uiso   1.00
H166   H     0.63563   0.29061   0.44852   0.00000  Uiso   1.00
H167   H     0.51434   0.25815   0.47287   0.00000  Uiso   1.00
H168   H     0.56738   0.22276   0.50437   0.00000  Uiso   1.00
H169   H     0.48761   0.31918   0.47256   0.00000  Uiso   1.00
C170   C     0.67145   0.19567   0.55093   0.00000  Uiso   1.00
C171   C     0.72944   0.16224   0.54424   0.00000  Uiso   1.00
C172   C     0.79143   0.14524   0.53513   0.00000  Uiso   1.00
C173   C     0.63836   0.23140   0.49684   0.00000  Uiso   1.00
C174   C     0.69922   0.18795   0.52963   0.00000  Uiso   1.00
C175   C     0.64152   0.21768   0.53492   0.00000  Uiso   1.00
C176   C     0.69652   0.20209   0.49207   0.00000  Uiso   1.00
C177   C     0.66630   0.22320   0.47566   0.00000  Uiso   1.00
C178   C     0.57885   0.30178   0.43464   0.00000  Uiso   1.00
C179   C     0.51326   0.31695   0.42353   0.00000  Uiso   1.00
C180   C     0.47265   0.36880   0.44021   0.00000  Uiso   1.00
C181   C     0.60590   0.25336   0.47862   0.00000  Uiso   1.00
C182   C     0.73068   0.94739   0.95981   0.00000  Uiso   1.00
C183   C     0.77017   0.95791   0.91323   0.00000  Uiso   1.00
H184   H     0.80533   0.11540   0.89797   0.00000  Uiso   1.00
C185   C     0.73313   0.00958   0.93367   0.00000  Uiso   1.00
C186   C     0.71942   0.98559   0.95766   0.00000  Uiso   1.00
N187   N     0.85115   0.08998   0.80467   0.00000  Uiso   1.00
N188   N     0.69425   0.93801   0.01277   0.00000  Uiso   1.00
O189   O     0.82055   0.13687   0.83205   0.00000  Uiso   1.00
O190   O     0.71779   0.88743   0.97996   0.00000  Uiso   1.00
H191   H     0.87010   0.14587   0.79767   0.00000  Uiso   1.00
H192   H     0.90114   0.10765   0.79328   0.00000  Uiso   1.00
H193   H     0.77844   0.07034   0.93422   0.00000  Uiso   1.00
H194   H     0.80381   0.02904   0.80134   0.00000  Uiso   1.00
H195   H     0.77616   0.98379   0.83748   0.00000  Uiso   1.00
H196   H     0.85713   0.06086   0.80185   0.00000  Uiso   1.00
H197   H     0.76537   0.90431   0.93820   0.00000  Uiso   1.00
H198   H     0.64630   0.91075  -0.01978   0.00000  Uiso   1.00
H199   H     0.64099   0.95927  -0.00032   0.00000  Uiso   1.00
H200   H     0.79019   0.94682   0.89662   0.00000  Uiso   1.00
H201   H     0.69950   0.99705   0.97406   0.00000  Uiso   1.00
H202   H     0.72325   0.03865   0.93228   0.00000  Uiso   1.00
H203   H     0.70533   0.96072   0.03278   0.00000  Uiso   1.00
C204   C     0.79916   0.08677   0.88445   0.00000  Uiso   1.00
C205   C     0.82651   0.10275   0.82731   0.00000  Uiso   1.00
C206   C     0.87212   0.11569   0.78608   0.00000  Uiso   1.00
C207   C     0.77527   0.02339   0.88880   0.00000  Uiso   1.00
C208   C     0.80772   0.07545   0.84740   0.00000  Uiso   1.00
C209   C     0.78351   0.06096   0.90508   0.00000  Uiso   1.00
C210   C     0.79892   0.03813   0.83060   0.00000  Uiso   1.00
C211   C     0.78291   1.01227   0.85117   0.00000  Uiso   1.00
C212   C     0.75611   0.93365   0.93716   0.00000  Uiso   1.00
C213   C     0.71476   0.92208   0.98454   0.00000  Uiso   1.00
C214   C     0.65524   0.93176   0.00619   0.00000  Uiso   1.00
C215   C     0.75899   0.99632   0.91158   0.00000  Uiso   1.00
C216   C     0.71877   0.94462   0.27803   0.00000  Uiso   1.00
C217   C     0.71106  -0.03828   0.34604   0.00000  Uiso   1.00
H218   H     0.83255   0.93031   0.46620   0.00000  Uiso   1.00
C219   C     0.77089   0.96147   0.33013   0.00000  Uiso   1.00
C220   C     0.75617   0.95058   0.29049   0.00000  Uiso   1.00
N221   N     0.83728   0.02346   0.53683   0.00000  Uiso   1.00
N222   N     0.71967   0.93938   0.20565   0.00000  Uiso   1.00
O223   O     0.83673  -0.04047   0.53919   0.00000  Uiso   1.00
O224   O     0.67738   0.90900   0.23003   0.00000  Uiso   1.00
H225   H     0.87971   0.00294   0.58189   0.00000  Uiso   1.00
H226   H     0.88983   0.04462   0.55904   0.00000  Uiso   1.00
H227   H     0.80010   0.92173   0.39743   0.00000  Uiso   1.00
H228   H     0.76840   0.03060   0.48480   0.00000  Uiso   1.00
H229   H     0.73536   0.02144   0.41525   0.00000  Uiso   1.00
H230   H     0.82716   0.04725   0.52160   0.00000  Uiso   1.00
H231   H     0.66719  -0.05404   0.29742   0.00000  Uiso   1.00
H232   H     0.72109   0.88867   0.16861   0.00000  Uiso   1.00
H233   H     0.72843   0.93192   0.14653   0.00000  Uiso   1.00
H234   H     0.69353  -0.03501   0.36753   0.00000  Uiso   1.00
H235   H     0.77447   0.94472   0.27014   0.00000  Uiso   1.00
H236   H     0.79996   0.96493   0.33907   0.00000  Uiso   1.00
H237   H     0.74056   0.95955   0.21111   0.00000  Uiso   1.00
C238   C     0.81119   0.95024   0.45573   0.00000  Uiso   1.00
C239   C     0.82608  -0.01258   0.52103   0.00000  Uiso   1.00
C240   C     0.86817   0.03000   0.57007   0.00000  Uiso   1.00
C241   C     0.76578  -0.02885   0.40111   0.00000  Uiso   1.00
C242   C     0.80338  -0.01858   0.48067   0.00000  Uiso   1.00
C243   C     0.79294   0.94550   0.41634   0.00000  Uiso   1.00
C244   C     0.77548   0.00677   0.46589   0.00000  Uiso   1.00
C245   C     0.75647   0.00144   0.42636   0.00000  Uiso   1.00
C246   C     0.69616   0.95072   0.30610   0.00000  Uiso   1.00
C247   C     0.70382   0.92990   0.23654   0.00000  Uiso   1.00
C248   C     0.71248   0.91895   0.16607   0.00000  Uiso   1.00
C249   C     0.74868   0.96604   0.35846   0.00000  Uiso   1.00
C250   C     0.22262   0.48183   0.71855   0.00000  Uiso   1.00
C251   C     0.27154   0.46439   0.68353   0.00000  Uiso   1.00
H252   H     0.29315   0.56116   0.56045   0.00000  Uiso   1.00
C253   C     0.22545   0.50914   0.65622   0.00000  Uiso   1.00
C254   C     0.20849   0.50600   0.68843   0.00000  Uiso   1.00
N255   N     0.34630   0.48496   0.50405   0.00000  Uiso   1.00
N256   N     0.16779   0.48349   0.74872   0.00000  Uiso   1.00
O257   O     0.30220   0.52871   0.49105   0.00000  Uiso   1.00
O258   O     0.22288   0.47236   0.78526   0.00000  Uiso   1.00
H259   H     0.34140   0.50699   0.44672   0.00000  Uiso   1.00
H260   H     0.38648   0.49557   0.47100   0.00000  Uiso   1.00
H261   H     0.26766   0.55404   0.61950   0.00000  Uiso   1.00
H262   H     0.31278   0.43951   0.55027   0.00000  Uiso   1.00
H263   H     0.28632   0.43207   0.60914   0.00000  Uiso   1.00
H264   H     0.36123   0.46777   0.52499   0.00000  Uiso   1.00
H265   H     0.26647   0.44299   0.73914   0.00000  Uiso   1.00
H266   H     0.16247   0.46891   0.80648   0.00000  Uiso   1.00
H267   H     0.12085   0.47588   0.77198   0.00000  Uiso   1.00
H268   H     0.29627   0.44858   0.68241   0.00000  Uiso   1.00
H269   H     0.18471   0.52326   0.69003   0.00000  Uiso   1.00
H270   H     0.21364   0.52789   0.63347   0.00000  Uiso   1.00
H271   H     0.15190   0.48646   0.72053   0.00000  Uiso   1.00
C272   C     0.29215   0.53292   0.57109   0.00000  Uiso   1.00
C273   C     0.31768   0.50570   0.51356   0.00000  Uiso   1.00
C274   C     0.35774   0.48625   0.46578   0.00000  Uiso   1.00
C275   C     0.27500   0.49253   0.61897   0.00000  Uiso   1.00
C276   C     0.30517   0.50100   0.55111   0.00000  Uiso   1.00
C277   C     0.27740   0.52879   0.60471   0.00000  Uiso   1.00
C278   C     0.30368   0.46473   0.56575   0.00000  Uiso   1.00
C279   C     0.28853   0.46049   0.59934   0.00000  Uiso   1.00
C280   C     0.25461   0.46139   0.71604   0.00000  Uiso   1.00
C281   C     0.20460   0.47886   0.75295   0.00000  Uiso   1.00
C282   C     0.14901   0.48664   0.78227   0.00000  Uiso   1.00
C283   C     0.25712   0.48839   0.65330   0.00000  Uiso   1.00
C284   C     0.25480   0.43982   0.21275   0.00000  Uiso   1.00
C285   C     0.27409   0.47491   0.16191   0.00000  Uiso   1.00
H286   H     0.22182   0.43746   0.00096   0.00000  Uiso   1.00
C287   C     0.21482   0.44498   0.14867   0.00000  Uiso   1.00
C288   C     0.22154   0.43200   0.18680   0.00000  Uiso   1.00
N289   N     0.16044   0.52426   0.96598   0.00000  Uiso   1.00
N290   N     0.29368   0.41011   0.26934   0.00000  Uiso   1.00
O291   O     0.20411   0.48691   0.94746   0.00000  Uiso   1.00
O292   O     0.23618   0.42686   0.27107   0.00000  Uiso   1.00
H293   H     0.14425   0.49689   0.90744   0.00000  Uiso   1.00
H294   H     0.10842   0.51147   0.93241   0.00000  Uiso   1.00
H295   H     0.24310   0.42219   0.06994   0.00000  Uiso   1.00
H296   H     0.19744   0.55268   0.04191   0.00000  Uiso   1.00
H297   H     0.21865   0.53673   0.11109   0.00000  Uiso   1.00
H298   H     0.15110   0.54019   0.98883   0.00000  Uiso   1.00
H299   H     0.30709   0.46768   0.21956   0.00000  Uiso   1.00
H300   H     0.30066   0.36196   0.30356   0.00000  Uiso   1.00
H301   H     0.27968   0.40224   0.32566   0.00000  Uiso   1.00
H302   H     0.29457   0.49126   0.15224   0.00000  Uiso   1.00
H303   H     0.20103   0.41513   0.19575   0.00000  Uiso   1.00
H304   H     0.18940   0.43770   0.12862   0.00000  Uiso   1.00
H305   H     0.31376   0.40712   0.25228   0.00000  Uiso   1.00
C306   C     0.22203   0.45981   0.02458   0.00000  Uiso   1.00
C307   C     0.19149   0.50295   0.97442   0.00000  Uiso   1.00
C308   C     0.13543   0.51993   0.92752   0.00000  Uiso   1.00
C309   C     0.23327   0.47857   0.09524   0.00000  Uiso   1.00
C310   C     0.20822   0.49631   0.01602   0.00000  Uiso   1.00
C311   C     0.23420   0.45101   0.06385   0.00000  Uiso   1.00
C312   C     0.20783   0.52425   0.04757   0.00000  Uiso   1.00
C313   C     0.22034   0.51540   0.08702   0.00000  Uiso   1.00
C314   C     0.28121   0.46121   0.20002   0.00000  Uiso   1.00
C315   C     0.26100   0.42568   0.25305   0.00000  Uiso   1.00
C316   C     0.30067   0.39365   0.30817   0.00000  Uiso   1.00
C317   C     0.24082   0.46674   0.13618   0.00000  Uiso   1.00
C318   C     0.04366   0.21507   0.51800   0.00000  Uiso   1.00
C319   C     0.08371   0.26764   0.51156   0.00000  Uiso   1.00
H320   H     0.23780   0.25446   0.56559   0.00000  Uiso   1.00
C321   C     0.10900   0.20553   0.52706   0.00000  Uiso   1.00
C322   C     0.07429   0.19130   0.52616   0.00000  Uiso   1.00
N323   N     0.26753   0.28944   0.46515   0.00000  Uiso   1.00
N324   N     0.99900   0.16515   0.52621   0.00000  Uiso   1.00
O325   O     0.28438   0.26685   0.52540   0.00000  Uiso   1.00
O326   O     0.98123   0.21727   0.49329   0.00000  Uiso   1.00
H327   H     0.32073   0.26468   0.47447   0.00000  Uiso   1.00
H328   H     0.29493   0.25926   0.42488   0.00000  Uiso   1.00
H329   H     0.17664   0.24009   0.57384   0.00000  Uiso   1.00
H330   H     0.19368   0.28875   0.44710   0.00000  Uiso   1.00
H331   H     0.13328   0.27556   0.45657   0.00000  Uiso   1.00
H332   H     0.24786   0.30267   0.44485   0.00000  Uiso   1.00
H333   H     0.02615   0.27277   0.50503   0.00000  Uiso   1.00
H334   H     0.97156   0.11562   0.49754   0.00000  Uiso   1.00
H335   H     0.94646   0.15897   0.48851   0.00000  Uiso   1.00
H336   H     0.08686   0.29717   0.50541   0.00000  Uiso   1.00
H337   H     0.07174   0.16128   0.53025   0.00000  Uiso   1.00
H338   H     0.13192   0.18628   0.53216   0.00000  Uiso   1.00
H339   H     1.01903   0.15188   0.54616   0.00000  Uiso   1.00
C340   C     0.21537   0.25985   0.54161   0.00000  Uiso   1.00
C341   C     0.25962   0.27680   0.49954   0.00000  Uiso   1.00
C342   C     0.30138   0.27950   0.45177   0.00000  Uiso   1.00
C343   C     0.15042   0.25685   0.51594   0.00000  Uiso   1.00
C344   C     0.22150   0.27319   0.50572   0.00000  Uiso   1.00
C345   C     0.18035   0.25151   0.54648   0.00000  Uiso   1.00
C346   C     0.19104   0.27942   0.47558   0.00000  Uiso   1.00
C347   C     0.15597   0.27172   0.48083   0.00000  Uiso   1.00
C348   C     0.04900   0.25359   0.51129   0.00000  Uiso   1.00
C349   C     1.00609   0.19944   0.51215   0.00000  Uiso   1.00
C350   C     0.96509   0.14381   0.51158   0.00000  Uiso   1.00
C351   C     0.11397   0.24358   0.51912   0.00000  Uiso   1.00
C352   C     0.06049   0.81929   0.80792   0.00000  Uiso   1.00
C353   C     0.04769   0.88715   0.81865   0.00000  Uiso   1.00
H354   H     0.91894   0.95204   0.72608   0.00000  Uiso   1.00
C355   C     1.01363   0.85008   0.76141   0.00000  Uiso   1.00
C356   C     0.03315   0.81740   0.77344   0.00000  Uiso   1.00
N357   N     0.96792   0.05397   0.71231   0.00000  Uiso   1.00
N358   N     0.07242   0.74945   0.80617   0.00000  Uiso   1.00
O359   O     0.91554   1.02317   0.71636   0.00000  Uiso   1.00
O360   O     0.11662   0.79172   0.83178   0.00000  Uiso   1.00
H361   H     0.93402   0.09477   0.73566   0.00000  Uiso   1.00
H362   H     0.97712   0.11244   0.73082   0.00000  Uiso   1.00
H363   H     0.94915   0.89504   0.75331   0.00000  Uiso   1.00
H364   H     1.02126   1.01248   0.75294   0.00000  Uiso   1.00
H365   H     0.05136   0.95512   0.77943   0.00000  Uiso   1.00
H366   H     0.99265   0.04974   0.70321   0.00000  Uiso   1.00
H367   H     0.08830   0.85663   0.85731   0.00000  Uiso   1.00
H368   H     0.12086   0.73275   0.78620   0.00000  Uiso   1.00
H369   H     0.08031   0.70859   0.76078   0.00000  Uiso   1.00
H370   H     0.05367   0.91394   0.83653   0.00000  Uiso   1.00
H371   H     1.02810   0.79112   0.75452   0.00000  Uiso   1.00
H372   H     0.99385   0.84808   0.73377   0.00000  Uiso   1.00
H373   H     0.04460   0.74406   0.80118   0.00000  Uiso   1.00
C374   C     0.94787   0.95318   0.73758   0.00000  Uiso   1.00
C375   C     0.94851   1.02175   0.72133   0.00000  Uiso   1.00
C376   C     0.95443   0.09314   0.71631   0.00000  Uiso   1.00
C377   C     1.00257   0.92065   0.76843   0.00000  Uiso   1.00
C378   C     0.96762   0.98685   0.73675   0.00000  Uiso   1.00
C379   C     0.96514   0.92047   0.75307   0.00000  Uiso   1.00
C380   C     1.00512   0.98705   0.75239   0.00000  Uiso   1.00
C381   C     1.02237   0.95433   0.76812   0.00000  Uiso   1.00
C382   C     0.06731   0.85440   0.83066   0.00000  Uiso   1.00
C383   C     0.08475   0.78611   0.81688   0.00000  Uiso   1.00
C384   C     0.09504   0.72017   0.79054   0.00000  Uiso   1.00
C385   C     0.02111   0.88545   0.78346   0.00000  Uiso   1.00
C386   C     0.90549   0.31757   0.69314   0.00000  Uiso   1.00
C387   C    -0.06710   0.38043   0.69460   0.00000  Uiso   1.00
H388   H     0.93518   0.48632   0.83248   0.00000  Uiso   1.00
C389   C     0.92459   0.35567   0.75607   0.00000  Uiso   1.00
C390   C     0.90929   0.32222   0.73480   0.00000  Uiso   1.00
N391   N     0.02279   0.54686   0.81442   0.00000  Uiso   1.00
N392   N     0.88764   0.24875   0.68610   0.00000  Uiso   1.00
O393   O     0.96769   0.55114   0.83334   0.00000  Uiso   1.00
O394   O     0.86956   0.28703   0.63631   0.00000  Uiso   1.00
H395   H     0.01437   0.59552   0.78107   0.00000  Uiso   1.00
H396   H     0.01746   0.60525   0.83419   0.00000  Uiso   1.00
H397   H     0.91331   0.42466   0.79883   0.00000  Uiso   1.00
H398   H     0.01315   0.49092   0.75600   0.00000  Uiso   1.00
H399   H    -0.00755   0.42875   0.72371   0.00000  Uiso   1.00
H400   H     0.04322   0.52752   0.80987   0.00000  Uiso   1.00
H401   H    -0.08540   0.34452   0.64126   0.00000  Uiso   1.00
H402   H     0.85175   0.20616   0.69457   0.00000  Uiso   1.00
H403   H     0.83817   0.22830   0.64896   0.00000  Uiso   1.00
H404   H    -0.05881   0.40287   0.67824   0.00000  Uiso   1.00
H405   H     0.89938   0.30058   0.75092   0.00000  Uiso   1.00
H406   H     0.92701   0.35840   0.78809   0.00000  Uiso   1.00
H407   H     0.90582   0.24451   0.71263   0.00000  Uiso   1.00
C408   C     0.94799   0.47390   0.80889   0.00000  Uiso   1.00
C409   C    -0.01209   0.53192   0.81616   0.00000  Uiso   1.00
C410   C     0.02844   0.58765   0.81099   0.00000  Uiso   1.00
C411   C     0.95103   0.42179   0.75841   0.00000  Uiso   1.00
C412   C    -0.02385   0.49340   0.79724   0.00000  Uiso   1.00
C413   C     0.93565   0.43845   0.78979   0.00000  Uiso   1.00
C414   C    -0.00804   0.47642   0.76640   0.00000  Uiso   1.00
C415   C    -0.02033   0.44100   0.74737   0.00000  Uiso   1.00
C416   C     0.91750   0.34708   0.67334   0.00000  Uiso   1.00
C417   C     0.88660   0.28359   0.67000   0.00000  Uiso   1.00
C418   C     0.86201   0.21770   0.66977   0.00000  Uiso   1.00
C419   C     0.93636   0.38533   0.73621   0.00000  Uiso   1.00
C420   C     0.95455   0.70372  -0.01213   0.00000  Uiso   1.00
C421   C     0.89945   0.71502   0.01407   0.00000  Uiso   1.00
H422   H     0.76766   0.75517   0.90617   0.00000  Uiso   1.00
C423   C     0.90283   0.73534   0.94911   0.00000  Uiso   1.00
C424   C     0.93817   0.72110   0.95324   0.00000  Uiso   1.00
N425   N     0.71742   0.78665  -0.00248   0.00000  Uiso   1.00
N426   N     0.01897   0.70437   0.97475   0.00000  Uiso   1.00
O427   O     0.71934   0.79921   0.93304   0.00000  Uiso   1.00
O428   O    -0.00016   0.66130   0.01370   0.00000  Uiso   1.00
H429   H     0.66768   0.81086  -0.03076   0.00000  Uiso   1.00
H430   H     0.66489   0.76329  -0.01505   0.00000  Uiso   1.00
H431   H     0.82931   0.73046   0.91253   0.00000  Uiso   1.00
H432   H     0.79029   0.79430   0.03071   0.00000  Uiso   1.00
H433   H     0.85194   0.77018   0.03699   0.00000  Uiso   1.00
H434   H     0.73093   0.77441   0.02315   0.00000  Uiso   1.00
H435   H     0.94661   0.68767   0.04532   0.00000  Uiso   1.00
H436   H     0.06257   0.67718   1.01229   0.00000  Uiso   1.00
H437   H     0.07215   0.72372   0.99838   0.00000  Uiso   1.00
H438   H     0.88485   0.71185   0.03781   0.00000  Uiso   1.00
H439   H     0.95224   0.72316   0.92892   0.00000  Uiso   1.00
H440   H     0.89114   0.74884   0.92220   0.00000  Uiso   1.00
H441   H     0.01186   0.72583   0.95513   0.00000  Uiso   1.00
C442   C     0.78592   0.75870   0.93483   0.00000  Uiso   1.00
C443   C     0.73565   0.78835  -0.03539   0.00000  Uiso   1.00
C444   C     0.67825   0.79160  -0.00688   0.00000  Uiso   1.00
C445   C     0.84556   0.74799  -0.02463   0.00000  Uiso   1.00
C446   C     0.77384   0.77583  -0.03186   0.00000  Uiso   1.00
C447   C     0.82128   0.74469   0.93846   0.00000  Uiso   1.00
C448   C     0.79832   0.78007   0.00478   0.00000  Uiso   1.00
C449   C     0.83372   0.76627   0.00837   0.00000  Uiso   1.00
C450   C     0.93472   0.70077   0.01817   0.00000  Uiso   1.00
C451   C    -0.00813   0.68805  -0.00713   0.00000  Uiso   1.00
C452   C     0.05765   0.69639   0.98743   0.00000  Uiso   1.00
C453   C     0.88305   0.73257  -0.02048   0.00000  Uiso   1.00
C454   C     0.47372   0.56441   0.24403   0.00000  Uiso   1.00
C455   C     0.47802   0.61974   0.20643   0.00000  Uiso   1.00
H456   H     0.52752   0.76440   0.28835   0.00000  Uiso   1.00
C457   C     0.50708   0.62110   0.27602   0.00000  Uiso   1.00
C458   C     0.49438   0.58408   0.27802   0.00000  Uiso   1.00
N459   N     0.58132   0.79624   0.20610   0.00000  Uiso   1.00
N460   N     0.45486   0.50956   0.27771   0.00000  Uiso   1.00
O461   O     0.54489   0.81654   0.24792   0.00000  Uiso   1.00
O462   O     0.46058   0.50323   0.21373   0.00000  Uiso   1.00
H463   H     0.58829   0.85538   0.22646   0.00000  Uiso   1.00
H464   H     0.62882   0.82751   0.23053   0.00000  Uiso   1.00
H465   H     0.50414   0.70097   0.29373   0.00000  Uiso   1.00
H466   H     0.55092   0.72705   0.17321   0.00000  Uiso   1.00
H467   H     0.52935   0.66337   0.17991   0.00000  Uiso   1.00
H468   H     0.59102   0.77344   0.18988   0.00000  Uiso   1.00
H469   H     0.44927   0.56849   0.18183   0.00000  Uiso   1.00
H470   H     0.47285   0.45226   0.27730   0.00000  Uiso   1.00
H471   H     0.42693   0.45901   0.25161   0.00000  Uiso   1.00
H472   H     0.47102   0.63322   0.17856   0.00000  Uiso   1.00
H473   H     0.50199   0.57048   0.30572   0.00000  Uiso   1.00
H474   H     0.52379   0.63525   0.30228   0.00000  Uiso   1.00
H475   H     0.45611   0.52737   0.30374   0.00000  Uiso   1.00
C476   C     0.52767   0.74275   0.26416   0.00000  Uiso   1.00
C477   C     0.55549   0.78994   0.22817   0.00000  Uiso   1.00
C478   C     0.60191   0.83202   0.21128   0.00000  Uiso   1.00
C479   C     0.51451   0.67735   0.23706   0.00000  Uiso   1.00
C480   C     0.54130   0.75102   0.23044   0.00000  Uiso   1.00
C481   C     0.51454   0.70634   0.26748   0.00000  Uiso   1.00
C482   C     0.54130   0.72191   0.19998   0.00000  Uiso   1.00
C483   C     0.52827   0.68543   0.20342   0.00000  Uiso   1.00
C484   C     0.46541   0.58282   0.20838   0.00000  Uiso   1.00
C485   C     0.46266   0.52402   0.24428   0.00000  Uiso   1.00
C486   C     0.44755   0.46868   0.27835   0.00000  Uiso   1.00
C487   C     0.49959   0.63897   0.23999   0.00000  Uiso   1.00
loop_
_geom_bond_atom_site_label_1
_geom_bond_atom_site_label_2
_geom_bond_distance
_geom_bond_site_symmetry_2
_ccdc_geom_bond_type
Ce0    O9      2.281   .     S
Ce0    O10     2.297   .     S
Ce0    O11     2.294   .     S
Ce0    O12     2.318   .     S
Ce0    O14     2.358   .     S
Ce0    O15     2.303   .     S
Ce0    O19     2.383   .     S
Ce1    O8      2.331   .     S
Ce1    O9      2.266   .     S
Ce1    O13     2.306   .     S
Ce1    O15     2.259   .     S
Ce1    O16     2.286   .     S
Ce1    O17     2.276   .     S
Ce1    O18     2.310   .     S
C2     O8      1.214   .     D
C2     O9      1.374   .     S
C2     C112    1.493   .     S
C3     O10     1.275   .     A
C3     O11     1.271   .     A
C3     C282    1.496   .     S
C4     O12     1.296   .     A
C4     O13     1.297   .     A
C4     C384    1.496   .     S
C5     O14     1.195   .     D
C5     O15     1.345   .     S
C5     C410    1.495   .     S
C6     O16     1.278   .     A
C6     O17     1.276   .     A
C6     C452    1.496   .     S
C7     O18     1.300   .     A
C7     O19     1.305   .     A
C7     C308    1.489   .     S
Ce20   O29     2.257   .     S
Ce20   O30     2.294   .     S
Ce20   O31     2.301   .     S
Ce20   O32     2.299   .     S
Ce20   O34     2.361   .     S
Ce20   O35     2.293   .     S
Ce20   O39     2.383   .     S
Ce21   O28     2.373   .     S
Ce21   O29     2.300   .     S
Ce21   O33     2.378   .     S
Ce21   O35     2.265   .     S
Ce21   O36     2.296   .     S
Ce21   O37     2.300   .     S
Ce21   O38     2.295   .     S
C22    O28     1.194   .     D
C22    O29     1.337   .     S
C22    C104    1.494   .     S
C23    O30     1.272   .     A
C23    O31     1.268   .     A
C23    C146    1.490   .     S
C24    O32     1.293   .     A
C24    O33     1.305   .     A
C24    C214    1.490   .     S
C25    O34     1.194   .     D
C25    O35     1.341   .     S
C25    C248    1.490   .     S
C26    O36     1.272   .     A
C26    O37     1.269   .     A
C26    C444    1.494   .     S
C27    O38     1.292   .     A
C27    O39     1.305   .     A
C27    C478    1.495   .     S
Ce40   O49     2.328   .     S
Ce40   O50     2.295   .     S
Ce40   O51     2.299   .     S
Ce40   O52     2.285   .     S
Ce40   O54     2.361   .     S
Ce40   O55     2.336   .     S
Ce40   O59     2.285   .     S
Ce41   O48     2.350   .     S
Ce41   O49     2.333   .     S
Ce41   O53     2.417   .     S
Ce41   O55     2.310   .     S
Ce41   O56     2.283   .     S
Ce41   O57     2.281   .     S
Ce41   O58     2.350   .     S
C42    O48     1.201   .     D
C42    O49     1.358   .     S
C42    C240    1.494   .     S
C43    O50     1.269   .     A
C43    O51     1.268   .     A
C43    C350    1.497   .     S
C44    O52     1.278   .     A
C44    O53     1.311   .     A
C44    C376    1.495   .     S
C45    O54     1.202   .     D
C45    O55     1.361   .     S
C45    C418    1.498   .     S
C46    O56     1.275   .     A
C46    O57     1.274   .     A
C46    C206    1.493   .     S
C47    O58     1.294   .     A
C47    O59     1.286   .     A
C47    C172    1.497   .     S
Ce60   O69     2.270   .     S
Ce60   O70     2.275   .     S
Ce60   O71     2.275   .     S
Ce60   O72     2.392   .     S
Ce60   O74     2.336   .     S
Ce60   O75     2.325   .     S
Ce60   O79     2.379   .     S
Ce61   O68     2.371   .     S
Ce61   O69     2.323   .     S
Ce61   O73     2.243   .     S
Ce61   O75     2.358   .     S
Ce61   O76     2.299   .     S
Ce61   O77     2.293   .     S
Ce61   O78     2.275   .     S
C62    O68     1.204   .     D
C62    O69     1.348   .     S
C62    C180    1.492   .     S
C63    O70     1.281   .     A
C63    O71     1.279   .     A
C63    C486    1.497   .     S
C64    O72     1.305   .     A
C64    O73     1.283   .     A
C64    C274    1.495   .     S
C65    O74     1.208   .     D
C65    O75     1.374   .     S
C65    C316    1.492   .     S
C66    O76     1.272   .     A
C66    O77     1.272   .     A
C66    C342    1.498   .     S
C67    O78     1.281   .     A
C67    O79     1.295   .     A
C67    C138    1.492   .     S
C80    C84     1.405   .     A
C80    C111    1.480   .     S
C80    C110    1.404   1_556 A
C81    H98     1.082   .     S
C81    C110    1.397   .     A
C81    C113    1.405   1_554 A
H82    C102    1.083   .     S
C83    C84     1.397   .     A
C83    H100    1.083   .     S
C83    C113    1.405   .     A
C84    H99     1.082   .     S
N85    H94     1.045   .     S
N85    C103    1.432   .     S
N85    C104    1.458   .     S
N86    H101    1.045   .     S
N86    C111    1.434   .     S
N86    C112    1.459   .     S
O87    C103    1.220   1_556 D
O88    C111    1.220   1_554 D
H89    C104    1.113   .     S
H90    C104    1.111   .     S
H91    C107    1.082   .     S
H92    C108    1.082   .     S
H93    C109    1.083   .     S
H95    C110    1.082   .     S
H96    C112    1.112   .     S
H97    C112    1.111   .     S
C102   C107    1.397   .     A
C102   C106    1.403   1_556 A
C103   C106    1.475   .     S
C103   O87     1.220   1_554 D
C105   C109    1.405   .     A
C105   C107    1.406   1_554 A
C105   C113    1.483   1_554 S
C106   C108    1.403   .     A
C106   C102    1.403   1_554 A
C107   C105    1.406   1_556 A
C108   C109    1.396   .     A
C110   C80     1.404   1_554 A
C111   O88     1.220   1_556 D
C113   C81     1.405   1_556 A
C113   C105    1.483   1_556 S
C114   C118    1.406   .     A
C114   C144    1.405   .     A
C114   C145    1.480   1_545 S
C115   H132    1.084   .     S
C115   C144    1.397   .     A
C115   C147    1.406   .     A
H116   C136    1.083   .     S
C117   C118    1.398   .     A
C117   H134    1.084   .     S
C117   C147    1.406   .     A
C118   H133    1.083   .     S
N119   H128    1.044   .     S
N119   C137    1.371   .     S
N119   C138    1.463   .     S
N120   H135    1.044   .     S
N120   C145    1.372   .     S
N120   C146    1.460   .     S
O121   C137    1.226   .     D
O122   C145    1.221   .     D
H123   C138    1.113   .     S
H124   C138    1.112   .     S
H125   C141    1.082   .     S
H126   C142    1.079   .     S
H127   C143    1.082   .     S
H129   C144    1.084   .     S
H130   C146    1.110   .     S
H131   C146    1.111   .     S
C136   C140    1.407   .     A
C136   C141    1.395   .     A
C137   C140    1.487   .     S
C139   C141    1.402   .     A
C139   C143    1.404   .     A
C139   C147    1.483   .     S
C140   C142    1.409   .     A
C142   C143    1.398   .     A
C145   C114    1.480   1_565 S
C148   C152    1.404   .     A
C148   C178    1.403   .     A
C148   C179    1.479   .     S
C149   H166    1.083   .     S
C149   C178    1.395   .     A
C149   C181    1.407   .     A
H150   C170    1.083   .     S
C151   C152    1.401   .     A
C151   H168    1.082   .     S
C151   C181    1.410   .     A
C152   H167    1.083   .     S
N153   H162    1.045   .     S
N153   C171    1.372   .     S
N153   C172    1.464   .     S
N154   H169    1.045   .     S
N154   C179    1.372   .     S
N154   C180    1.464   .     S
O155   C171    1.218   .     D
O156   C179    1.221   .     D
H157   C172    1.111   .     S
H158   C172    1.111   .     S
H159   C175    1.082   .     S
H160   C176    1.083   .     S
H161   C177    1.082   .     S
H163   C178    1.084   .     S
H164   C180    1.110   .     S
H165   C180    1.110   .     S
C170   C174    1.402   .     A
C170   C175    1.401   .     A
C171   C174    1.474   .     S
C173   C175    1.409   .     A
C173   C177    1.408   .     A
C173   C181    1.491   .     S
C174   C176    1.400   .     A
C176   C177    1.395   .     A
C182   C186    1.402   .     A
C182   C212    1.407   .     A
C182   C213    1.481   .     S
C183   H200    1.083   .     S
C183   C212    1.402   .     A
C183   C215    1.407   .     A
H184   C204    1.081   .     S
C185   H202    1.081   .     S
C185   C186    1.391   1_545 A
C185   C215    1.403   1_545 A
C186   H201    1.080   .     S
C186   C185    1.391   1_565 A
N187   H196    1.044   .     S
N187   C205    1.374   .     S
N187   C206    1.465   .     S
N188   H203    1.046   .     S
N188   C214    1.458   .     S
N188   C213    1.432   1_554 S
O189   C205    1.218   .     D
O190   C213    1.219   .     D
H191   C206    1.109   .     S
H192   C206    1.109   .     S
H193   C209    1.082   .     S
H194   C210    1.081   .     S
H195   C211    1.082   .     S
H197   C212    1.082   .     S
H198   C214    1.114   .     S
H199   C214    1.113   .     S
C204   C208    1.402   .     A
C204   C209    1.393   .     A
C205   C208    1.483   .     S
C207   C209    1.405   .     A
C207   C211    1.405   1_545 A
C207   C215    1.484   1_545 S
C208   C210    1.405   .     A
C210   C211    1.400   1_545 A
C211   C207    1.405   1_565 A
C211   C210    1.400   1_565 A
C213   N188    1.432   1_556 S
C215   C185    1.403   1_565 A
C215   C207    1.484   1_565 S
C216   C220    1.402   .     A
C216   C246    1.410   .     A
C216   C247    1.481   .     S
C217   H234    1.083   .     S
C217   C246    1.403   1_545 D
C217   C249    1.403   1_545 S
H218   C238    1.083   .     S
C219   C220    1.391   .     A
C219   H236    1.083   .     S
C219   C249    1.402   .     A
C220   H235    1.082   .     S
N221   H230    1.044   .     S
N221   C239    1.374   .     S
N221   C240    1.467   .     S
N222   H237    1.044   .     S
N222   C247    1.379   .     S
N222   C248    1.465   .     S
O223   C239    1.219   .     D
O224   C247    1.218   .     D
H225   C240    1.109   .     S
H226   C240    1.110   .     S
H227   C243    1.082   .     S
H228   C244    1.082   .     S
H229   C245    1.084   .     S
H231   C246    1.084   1_545 S
H232   C248    1.110   .     S
H233   C248    1.109   .     S
C238   C243    1.390   .     A
C238   C242    1.402   1_565 A
C239   C242    1.480   .     S
C241   C245    1.405   .     A
C241   C243    1.401   1_545 A
C241   C249    1.477   1_545 S
C242   C244    1.408   .     A
C242   C238    1.402   1_545 A
C243   C241    1.401   1_565 A
C244   C245    1.404   .     A
C246   C217    1.403   1_565 D
C246   H231    1.084   1_565 S
C249   C217    1.403   1_565 S
C249   C241    1.477   1_565 S
C250   C254    1.404   .     A
C250   C280    1.408   .     A
C250   C281    1.485   .     S
C251   H268    1.083   .     S
C251   C280    1.402   .     A
C251   C283    1.405   .     A
H252   C272    1.084   .     S
C253   C254    1.394   .     A
C253   H270    1.082   .     S
C253   C283    1.405   .     A
C254   H269    1.082   .     S
N255   H264    1.045   .     S
N255   C273    1.371   .     S
N255   C274    1.466   .     S
N256   H271    1.044   .     S
N256   C281    1.374   .     S
N256   C282    1.463   .     S
O257   C273    1.221   .     D
O258   C281    1.220   .     D
H259   C274    1.111   .     S
H260   C274    1.111   .     S
H261   C277    1.083   .     S
H262   C278    1.084   .     S
H263   C279    1.084   .     S
H265   C280    1.083   .     S
H266   C282    1.112   .     S
H267   C282    1.111   .     S
C272   C276    1.402   .     A
C272   C277    1.394   .     A
C273   C276    1.479   .     S
C275   C277    1.405   .     A
C275   C279    1.408   .     A
C275   C283    1.485   .     S
C276   C278    1.407   .     A
C278   C279    1.402   .     A
C284   C288    1.403   .     A
C284   C314    1.408   .     A
C284   C315    1.479   .     S
C285   H302    1.083   .     S
C285   C314    1.403   .     A
C285   C317    1.402   .     A
H286   C306    1.084   .     S
C287   C288    1.393   .     A
C287   H304    1.084   .     S
C287   C317    1.399   .     A
C288   H303    1.083   .     S
N289   H298    1.044   .     S
N289   C307    1.372   .     S
N289   C308    1.462   .     S
N290   H305    1.044   .     S
N290   C315    1.371   .     S
N290   C316    1.467   .     S
O291   C307    1.220   .     D
O292   C315    1.218   .     D
H293   C308    1.113   .     S
H294   C308    1.110   .     S
H295   C311    1.082   .     S
H296   C312    1.082   .     S
H297   C313    1.083   .     S
H299   C314    1.084   .     S
H300   C316    1.110   .     S
H301   C316    1.109   .     S
C306   C310    1.404   .     A
C306   C311    1.392   .     A
C307   C310    1.477   1_556 S
C309   C311    1.398   .     A
C309   C313    1.402   .     A
C309   C317    1.468   .     S
C310   C312    1.407   .     A
C310   C307    1.477   1_554 S
C312   C313    1.400   .     A
C318   C322    1.409   .     A
C318   C348    1.410   .     A
C318   C349    1.494   1_455 S
C319   H336    1.084   .     S
C319   C348    1.401   .     A
C319   C351    1.403   .     A
H320   C340    1.082   .     S
C321   C322    1.399   .     A
C321   H338    1.083   .     S
C321   C351    1.403   .     A
C322   H337    1.080   .     S
N323   H332    1.041   .     S
N323   C341    1.378   .     S
N323   C342    1.468   .     S
N324   H339    1.043   .     S
N324   C349    1.376   .     S
N324   C350    1.468   .     S
O325   C341    1.221   .     D
O326   C349    1.221   .     D
H327   C342    1.111   .     S
H328   C342    1.110   .     S
H329   C345    1.083   .     S
H330   C346    1.077   .     S
H331   C347    1.084   .     S
H333   C348    1.082   .     S
H334   C350    1.112   .     S
H335   C350    1.112   .     S
C340   C344    1.411   .     A
C340   C345    1.399   .     A
C341   C344    1.500   .     S
C343   C345    1.401   .     A
C343   C347    1.402   .     A
C343   C351    1.482   .     S
C344   C346    1.412   .     A
C346   C347    1.400   .     A
C349   C318    1.494   1_655 S
C352   C356    1.405   .     A
C352   C382    1.405   .     A
C352   C383    1.482   .     S
C353   H370    1.083   .     S
C353   C382    1.400   .     A
C353   C385    1.407   .     A
H354   C374    1.083   .     S
C355   H372    1.083   .     S
C355   C356    1.397   1_655 A
C355   C385    1.405   1_655 A
C356   C355    1.397   1_455 A
C356   H371    1.083   1_455 S
N357   H366    1.045   .     S
N357   C376    1.464   .     S
N357   C375    1.438   1_545 S
N358   H373    1.045   .     S
N358   C383    1.370   .     S
N358   C384    1.464   .     S
O359   C375    1.220   .     D
O360   C383    1.220   .     D
H361   C376    1.109   .     S
H362   C376    1.110   .     S
H363   C379    1.083   .     S
H364   C380    1.082   .     S
H365   C381    1.084   1_455 S
H367   C382    1.083   .     S
H368   C384    1.113   .     S
H369   C384    1.112   .     S
H371   C356    1.083   1_655 S
C374   C378    1.408   .     A
C374   C379    1.398   .     A
C375   C378    1.489   .     S
C375   N357    1.438   1_565 S
C377   C379    1.404   .     A
C377   C381    1.406   .     A
C377   C385    1.485   1_655 S
C378   C380    1.408   .     A
C380   C381    1.401   .     A
C381   H365    1.084   1_655 S
C385   C355    1.405   1_455 A
C385   C377    1.485   1_455 S
C386   C390    1.407   .     A
C386   C416    1.405   .     A
C386   C417    1.488   .     S
C387   H404    1.083   .     S
C387   C416    1.399   1_455 A
C387   C419    1.407   1_455 A
H388   C408    1.084   .     S
C389   C390    1.401   .     A
C389   H406    1.083   .     S
C389   C419    1.407   .     A
C390   H405    1.083   .     S
N391   H400    1.046   .     S
N391   C409    1.434   .     S
N391   C410    1.464   .     S
N392   H407    1.045   .     S
N392   C417    1.374   .     S
N392   C418    1.467   .     S
O393   C409    1.219   1_655 D
O394   C417    1.221   .     D
H395   C410    1.112   .     S
H396   C410    1.112   .     S
H397   C413    1.083   .     S
H398   C414    1.083   .     S
H399   C415    1.083   .     S
H401   C416    1.083   1_455 S
H402   C418    1.106   .     S
H403   C418    1.110   .     S
C408   C413    1.401   .     A
C408   C412    1.406   1_655 A
C409   C412    1.487   .     S
C409   O393    1.219   1_455 D
C411   C413    1.408   .     A
C411   C419    1.492   .     S
C411   C415    1.407   1_655 A
C412   C414    1.406   .     A
C412   C408    1.406   1_455 A
C414   C415    1.399   .     A
C415   C411    1.407   1_455 A
C416   C387    1.399   1_655 A
C416   H401    1.083   1_655 S
C419   C387    1.407   1_655 A
C420   C450    1.406   .     A
C420   C424    1.405   1_554 A
C420   C451    1.485   1_655 S
C421   H438    1.082   .     S
C421   C450    1.397   .     A
C421   C453    1.406   .     A
H422   C442    1.083   .     S
C423   C424    1.400   .     A
C423   H440    1.082   .     S
C423   C453    1.407   1_556 A
C424   H439    1.081   .     S
C424   C420    1.405   1_556 A
N425   H434    1.045   .     S
N425   C443    1.439   .     S
N425   C444    1.462   .     S
N426   H441    1.044   .     S
N426   C452    1.465   .     S
N426   C451    1.440   1_556 S
O427   C443    1.220   1_556 D
O428   C451    1.220   .     D
H429   C444    1.110   .     S
H430   C444    1.110   .     S
H431   C447    1.081   .     S
H432   C448    1.081   .     S
H433   C449    1.082   .     S
H435   C450    1.084   .     S
H436   C452    1.112   .     S
H437   C452    1.111   .     S
C442   C447    1.399   .     A
C442   C446    1.404   1_556 A
C443   C446    1.482   .     S
C443   O427    1.220   1_554 D
C445   C449    1.406   .     A
C445   C453    1.489   .     S
C445   C447    1.407   1_554 A
C446   C448    1.404   .     A
C446   C442    1.404   1_554 A
C447   C445    1.407   1_556 A
C448   C449    1.398   .     A
C451   C420    1.485   1_455 S
C451   N426    1.440   1_554 S
C453   C423    1.407   1_554 A
C454   C458    1.406   .     A
C454   C484    1.405   .     A
C454   C485    1.482   .     S
C455   H472    1.083   .     S
C455   C484    1.395   .     A
C455   C487    1.404   .     A
H456   C476    1.083   .     S
C457   C458    1.399   .     A
C457   H474    1.083   .     S
C457   C487    1.406   .     A
C458   H473    1.082   .     S
N459   H468    1.043   .     S
N459   C477    1.375   .     S
N459   C478    1.463   .     S
N460   H475    1.045   .     S
N460   C485    1.373   .     S
N460   C486    1.465   .     S
O461   C477    1.221   .     D
O462   C485    1.222   .     D
H463   C478    1.112   .     S
H464   C478    1.111   .     S
H465   C481    1.081   .     S
H466   C482    1.080   .     S
H467   C483    1.082   .     S
H469   C484    1.083   .     S
H470   C486    1.112   .     S
H471   C486    1.113   .     S
C476   C480    1.406   .     A
C476   C481    1.395   .     A
C477   C480    1.484   .     S
C479   C481    1.402   .     A
C479   C483    1.405   .     A
C479   C487    1.482   .     S
C480   C482    1.406   .     A
C482   C483    1.396   .     A
