data_lcy+N139+E1
_audit_creation_date              2025-01-21
_audit_creation_method            'Materials Studio'
_symmetry_space_group_name_H-M    'P1'
_symmetry_Int_Tables_number       1
_symmetry_cell_setting            triclinic
loop_
_symmetry_equiv_pos_as_xyz
  x,y,z
_cell_length_a                    32.1813
_cell_length_b                    32.5600
_cell_length_c                    33.8202
_cell_angle_alpha                 92.7723
_cell_angle_beta                  91.4588
_cell_angle_gamma                 83.9105
loop_
_atom_site_label
_atom_site_type_symbol
_atom_site_fract_x
_atom_site_fract_y
_atom_site_fract_z
_atom_site_U_iso_or_equiv
_atom_site_adp_type
_atom_site_occupancy
C0     C     0.04505   0.55400   0.83798   0.00000  Uiso   1.00
Sm1    Sm    0.14315   0.64189   0.87495   0.00000  Uiso   1.00
Sm2    Sm    0.11982   0.58436   0.84829   0.00000  Uiso   1.00
C3     C     0.17316   0.56677   0.92403   0.00000  Uiso   1.00
C4     C     0.17188   0.56239   0.78782   0.00000  Uiso   1.00
O5     O     0.20687   0.66204   0.86644   0.00000  Uiso   1.00
O6     O     0.16664   0.69877   0.90554   0.00000  Uiso   1.00
O7     O     0.07997   0.62511   0.80653   0.00000  Uiso   1.00
O8     O     0.11722   0.67653   0.82295   0.00000  Uiso   1.00
O9     O     0.07730   0.63965   0.89464   0.00000  Uiso   1.00
O10    O     0.10805   0.69069   0.91565   0.00000  Uiso   1.00
O11    O     0.06446   0.55571   0.87088   0.00000  Uiso   1.00
O12    O     0.06337   0.56978   0.81080   0.00000  Uiso   1.00
O13    O     0.16804   0.60601   0.92655   0.00000  Uiso   1.00
O14    O     0.16053   0.54785   0.89281   0.00000  Uiso   1.00
O15    O     0.17266   0.59567   0.80860   0.00000  Uiso   1.00
O16    O     0.14582   0.53947   0.79985   0.00000  Uiso   1.00
C17    C     0.20272   0.69283   0.89073   0.00000  Uiso   1.00
C18    C     0.08861   0.66185   0.80174   0.00000  Uiso   1.00
C19    C     0.07443   0.67350   0.91457   0.00000  Uiso   1.00
C20    C     0.59047   0.79580   0.21273   0.00000  Uiso   1.00
Sm21   Sm    0.66416   0.92897   0.09498   0.00000  Uiso   1.00
Sm22   Sm    0.61282   0.83259   0.14995   0.00000  Uiso   1.00
C23    C     0.68242   0.83763   0.08319   0.00000  Uiso   1.00
C24    C     0.56800   0.81128   0.08717   0.00000  Uiso   1.00
O25    O     0.64569   0.96095   0.03941   0.00000  Uiso   1.00
O26    O     0.71120   0.94291   0.05209   0.00000  Uiso   1.00
O27    O     0.61978   0.89278   0.18476   0.00000  Uiso   1.00
O28    O     0.60676   0.92320   0.12929   0.00000  Uiso   1.00
O29    O     0.70478   0.91412   0.14717   0.00000  Uiso   1.00
O30    O     0.68491   0.97842   0.13692   0.00000  Uiso   1.00
O31    O     0.62851   0.79412   0.20207   0.00000  Uiso   1.00
O32    O     0.56440   0.81875   0.19194   0.00000  Uiso   1.00
O33    O     0.65929   0.86619   0.06676   0.00000  Uiso   1.00
O34    O     0.67437   0.82649   0.11766   0.00000  Uiso   1.00
O35    O     0.57237   0.84903   0.09720   0.00000  Uiso   1.00
O36    O     0.58940   0.78467   0.10823   0.00000  Uiso   1.00
C37    C     0.68367   0.96007   0.02837   0.00000  Uiso   1.00
C38    C     0.61076   0.92591   0.16665   0.00000  Uiso   1.00
C39    C     0.70555   0.95196   0.15895   0.00000  Uiso   1.00
C40    C     0.85989   0.06561   0.54355   0.00000  Uiso   1.00
Sm41   Sm    0.94830   0.12079   0.66508   0.00000  Uiso   1.00
Sm42   Sm    0.89007   0.11074   0.60502   0.00000  Uiso   1.00
C43    C     0.95172   0.16393   0.58255   0.00000  Uiso   1.00
C44    C     0.82944   0.17411   0.59562   0.00000  Uiso   1.00
O45    O     0.90641   0.16350   0.70671   0.00000  Uiso   1.00
O46    O     0.97012   0.17257   0.70379   0.00000  Uiso   1.00
O47    O     0.84988   0.08818   0.64965   0.00000  Uiso   1.00
O48    O     0.88140   0.13185   0.68958   0.00000  Uiso   1.00
O49    O     0.93270   0.05815   0.64341   0.00000  Uiso   1.00
O50    O     0.95280   0.06719   0.70420   0.00000  Uiso   1.00
O51    O     0.89095   0.05201   0.56480   0.00000  Uiso   1.00
O52    O     0.84404   0.10113   0.55537   0.00000  Uiso   1.00
O53    O     0.94672   0.17076   0.61967   0.00000  Uiso   1.00
O54    O     0.93299   0.13601   0.56481   0.00000  Uiso   1.00
O55    O     0.85808   0.17543   0.62193   0.00000  Uiso   1.00
O56    O     0.83388   0.14163   0.57345   0.00000  Uiso   1.00
C57    C     0.93486   0.18636   0.71695   0.00000  Uiso   1.00
C58    C     0.85280   0.10716   0.68320   0.00000  Uiso   1.00
C59    C     0.94139   0.04201   0.67678   0.00000  Uiso   1.00
C60    C     0.34189   0.40026   0.28432   0.00000  Uiso   1.00
Sm61   Sm    0.38412   0.33002   0.39467   0.00000  Uiso   1.00
Sm62   Sm    0.38730   0.38127   0.35051   0.00000  Uiso   1.00
C63    C     0.45833   0.31560   0.33912   0.00000  Uiso   1.00
C64    C     0.43778   0.44170   0.34499   0.00000  Uiso   1.00
O65    O     0.40260   0.29900   0.45296   0.00000  Uiso   1.00
O66    O     0.45014   0.31782   0.41821   0.00000  Uiso   1.00
O67    O     0.34565   0.42440   0.38967   0.00000  Uiso   1.00
O68    O     0.38257   0.38853   0.43346   0.00000  Uiso   1.00
O69    O     0.31505   0.33424   0.40238   0.00000  Uiso   1.00
O70    O     0.35324   0.29593   0.44091   0.00000  Uiso   1.00
O71    O     0.33517   0.37052   0.30542   0.00000  Uiso   1.00
O72    O     0.37170   0.41973   0.29766   0.00000  Uiso   1.00
O73    O     0.45219   0.31859   0.37642   0.00000  Uiso   1.00
O74    O     0.43279   0.33671   0.31671   0.00000  Uiso   1.00
O75    O     0.44092   0.41717   0.37319   0.00000  Uiso   1.00
O76    O     0.40919   0.43447   0.31997   0.00000  Uiso   1.00
C77    C     0.44119   0.30328   0.45069   0.00000  Uiso   1.00
C78    C     0.35754   0.42009   0.42550   0.00000  Uiso   1.00
C79    C     0.31624   0.30967   0.43033   0.00000  Uiso   1.00
C80    C     0.46838   0.78056   1.00872   0.00000  Uiso   1.00
C81    C     0.48267   0.81978   1.00817   0.00000  Uiso   1.00
C82    C     0.51671   0.82937   1.03217   0.00000  Uiso   1.00
C83    C     0.53758   0.79950   0.05635   0.00000  Uiso   1.00
C84    C     0.52511   0.75939   0.05460   0.00000  Uiso   1.00
C85    C     0.49062   0.75013   0.03126   0.00000  Uiso   1.00
C86    C     0.42822   0.77253   0.98905   0.00000  Uiso   1.00
C87    C     0.39791   0.75540   1.01040   0.00000  Uiso   1.00
C88    C     0.35953   0.74843   0.99268   0.00000  Uiso   1.00
C89    C     0.35078   0.75797   0.95304   0.00000  Uiso   1.00
C90    C     0.38100   0.77529   0.93165   0.00000  Uiso   1.00
C91    C     0.41929   0.78288   0.94965   0.00000  Uiso   1.00
C92    C     0.31105   0.74761   0.93386   0.00000  Uiso   1.00
C93    C     0.31129   0.72636   0.89671   0.00000  Uiso   1.00
C94    C     0.27504   0.71092   0.88139   0.00000  Uiso   1.00
C95    C     0.23786   0.71658   0.90282   0.00000  Uiso   1.00
C96    C     0.23684   0.74024   0.93865   0.00000  Uiso   1.00
C97    C     0.27319   0.75547   0.95410   0.00000  Uiso   1.00
H98    H     0.46595   0.84369   0.99101   0.00000  Uiso   1.00
H99    H     0.52555   0.86059   1.03308   0.00000  Uiso   1.00
H100   H     0.54048   0.73581   0.07303   0.00000  Uiso   1.00
H101   H     0.48031   0.71958   0.03185   0.00000  Uiso   1.00
H102   H     0.40378   0.74769   0.04102   0.00000  Uiso   1.00
H103   H     0.33700   0.73472   0.00980   0.00000  Uiso   1.00
H104   H     0.37493   0.78304   0.90108   0.00000  Uiso   1.00
H105   H     0.44215   0.79626   0.93268   0.00000  Uiso   1.00
H106   H     0.34004   0.71954   0.88056   0.00000  Uiso   1.00
H107   H     0.27661   0.69289   0.85361   0.00000  Uiso   1.00
H108   H     0.20866   0.74498   0.95586   0.00000  Uiso   1.00
H109   H     0.27206   0.77220   0.98258   0.00000  Uiso   1.00
C110   C     0.53638   0.21057   0.29271   0.00000  Uiso   1.00
C111   C     0.53705   0.22124   0.33346   0.00000  Uiso   1.00
C112   C     0.51459   0.25761   0.34826   0.00000  Uiso   1.00
C113   C     0.49080   0.28415   0.32266   0.00000  Uiso   1.00
C114   C     0.49278   0.27523   0.28169   0.00000  Uiso   1.00
C115   C     0.51523   0.23877   0.26686   0.00000  Uiso   1.00
C116   C     0.55472   0.16898   0.27749   0.00000  Uiso   1.00
C117   C     0.57462   0.16412   0.24086   0.00000  Uiso   1.00
C118   C     0.58842   0.12475   0.22493   0.00000  Uiso   1.00
C119   C     0.58211   0.08899   0.24483   0.00000  Uiso   1.00
C120   C     0.56348   0.09392   0.28217   0.00000  Uiso   1.00
C121   C     0.55006   0.13340   0.29832   0.00000  Uiso   1.00
C122   C     0.59208   0.04703   0.22534   0.00000  Uiso   1.00
C123   C     0.60595   0.01221   0.24724   0.00000  Uiso   1.00
C124   C     0.61269   0.97268   0.22847   0.00000  Uiso   1.00
C125   C     0.60595   0.96730   0.18740   0.00000  Uiso   1.00
C126   C     0.59308   1.00219   0.16560   0.00000  Uiso   1.00
C127   C     0.58605   0.04131   0.18423   0.00000  Uiso   1.00
H128   H     0.55370   0.20074   0.35415   0.00000  Uiso   1.00
H129   H     0.51388   0.26356   0.38001   0.00000  Uiso   1.00
H130   H     0.47481   0.29503   0.26118   0.00000  Uiso   1.00
H131   H     0.51384   0.23150   0.23533   0.00000  Uiso   1.00
H132   H     0.57916   0.19081   0.22426   0.00000  Uiso   1.00
H133   H     0.60350   0.12242   0.19657   0.00000  Uiso   1.00
H134   H     0.55760   0.06725   0.29823   0.00000  Uiso   1.00
H135   H     0.53431   0.13591   0.32636   0.00000  Uiso   1.00
H136   H     0.61149   0.01547   0.27889   0.00000  Uiso   1.00
H137   H     0.62281   0.94638   0.24602   0.00000  Uiso   1.00
H138   H     0.58761   0.99922   0.13391   0.00000  Uiso   1.00
H139   H     0.57458   0.06691   0.16632   0.00000  Uiso   1.00
C140   C     0.70734   0.23488   0.58589   0.00000  Uiso   1.00
C141   C     0.72950   0.22071   0.55193   0.00000  Uiso   1.00
C142   C     0.77139   0.20542   0.55490   0.00000  Uiso   1.00
C143   C     0.79187   0.20356   0.59195   0.00000  Uiso   1.00
C144   C     0.77088   0.22102   0.62565   0.00000  Uiso   1.00
C145   C     0.72867   0.23680   0.62257   0.00000  Uiso   1.00
C146   C     0.66155   0.24402   0.58250   0.00000  Uiso   1.00
C147   C     0.63785   0.21371   0.56534   0.00000  Uiso   1.00
C148   C     0.59614   0.22383   0.55421   0.00000  Uiso   1.00
C149   C     0.57757   0.26458   0.55978   0.00000  Uiso   1.00
C150   C     0.60024   0.29408   0.58011   0.00000  Uiso   1.00
C151   C     0.64205   0.28380   0.59153   0.00000  Uiso   1.00
C152   C     0.53896   0.27775   0.53711   0.00000  Uiso   1.00
C153   C     0.53983   0.30989   0.51115   0.00000  Uiso   1.00
C154   C     0.50739   0.31816   0.48381   0.00000  Uiso   1.00
C155   C     0.47299   0.29500   0.48212   0.00000  Uiso   1.00
C156   C     0.47065   0.26426   0.50941   0.00000  Uiso   1.00
C157   C     0.50390   0.25519   0.53639   0.00000  Uiso   1.00
H158   H     0.71374   0.21944   0.52329   0.00000  Uiso   1.00
H159   H     0.78692   0.19209   0.52851   0.00000  Uiso   1.00
H160   H     0.78583   0.21926   0.65464   0.00000  Uiso   1.00
H161   H     0.71200   0.24765   0.64907   0.00000  Uiso   1.00
H162   H     0.65244   0.18274   0.55843   0.00000  Uiso   1.00
H163   H     0.57958   0.20068   0.53824   0.00000  Uiso   1.00
H164   H     0.58635   0.32567   0.58488   0.00000  Uiso   1.00
H165   H     0.65988   0.30753   0.60479   0.00000  Uiso   1.00
H166   H     0.56678   0.32718   0.51050   0.00000  Uiso   1.00
H167   H     0.50955   0.34243   0.46339   0.00000  Uiso   1.00
H168   H     0.44414   0.24631   0.50874   0.00000  Uiso   1.00
H169   H     0.50280   0.22998   0.55594   0.00000  Uiso   1.00
C170   C     0.78097   0.07536   0.78066   0.00000  Uiso   1.00
C171   C     0.77080   0.06207   0.74168   0.00000  Uiso   1.00
C172   C     0.79284   0.07381   0.70960   0.00000  Uiso   1.00
C173   C     0.82504   0.09958   0.71574   0.00000  Uiso   1.00
C174   C     0.83373   0.11444   0.75442   0.00000  Uiso   1.00
C175   C     0.81232   0.10218   0.78644   0.00000  Uiso   1.00
C176   C     0.76094   0.05970   0.81542   0.00000  Uiso   1.00
C177   C     0.75443   0.08477   0.85030   0.00000  Uiso   1.00
C178   C     0.73973   0.06875   0.88423   0.00000  Uiso   1.00
C179   C     0.73044   1.02771   0.88377   0.00000  Uiso   1.00
C180   C     0.73537   1.00289   0.84889   0.00000  Uiso   1.00
C181   C     0.75073   1.01865   0.81504   0.00000  Uiso   1.00
C182   C     0.71809   1.01019   0.92044   0.00000  Uiso   1.00
C183   C     0.67637   1.00354   0.92624   0.00000  Uiso   1.00
C184   C     0.66488   0.98764   0.96162   0.00000  Uiso   1.00
C185   C     0.69519   0.97748   0.99122   0.00000  Uiso   1.00
C186   C     0.73702   0.98375   0.98498   0.00000  Uiso   1.00
C187   C     0.74832   1.00027   0.94996   0.00000  Uiso   1.00
H188   H     0.74628   0.04204   0.73599   0.00000  Uiso   1.00
H189   H     0.78537   0.06187   0.68012   0.00000  Uiso   1.00
H190   H     0.85857   0.13400   0.76034   0.00000  Uiso   1.00
H191   H     0.82168   0.11253   0.81591   0.00000  Uiso   1.00
H192   H     0.76125   0.11665   0.85164   0.00000  Uiso   1.00
H193   H     0.73603   0.08821   0.91105   0.00000  Uiso   1.00
H194   H     0.72874   0.97093   0.84831   0.00000  Uiso   1.00
H195   H     0.75608   0.99815   0.78913   0.00000  Uiso   1.00
H196   H     0.65278   1.01096   0.90354   0.00000  Uiso   1.00
H197   H     0.63246   0.98291   0.96568   0.00000  Uiso   1.00
H198   H     0.76097   0.97619   0.00732   0.00000  Uiso   1.00
H199   H     0.78071   1.00509   0.94574   0.00000  Uiso   1.00
C200   C     0.82006   1.01742   0.43084   0.00000  Uiso   1.00
C201   C     0.85388   0.99601   0.45092   0.00000  Uiso   1.00
C202   C     0.86613   1.01010   0.48891   0.00000  Uiso   1.00
C203   C     0.84425   0.04532   0.50709   0.00000  Uiso   1.00
C204   C     0.80888   0.06485   0.48775   0.00000  Uiso   1.00
C205   C     0.79709   0.05116   0.44999   0.00000  Uiso   1.00
C206   C     0.80924   1.00651   0.38930   0.00000  Uiso   1.00
C207   C     0.80626   0.03711   0.36124   0.00000  Uiso   1.00
C208   C     0.79242   1.02847   0.32263   0.00000  Uiso   1.00
C209   C     0.78081   0.98914   0.31139   0.00000  Uiso   1.00
C210   C     0.78482   0.95818   0.33937   0.00000  Uiso   1.00
C211   C     0.79911   0.96680   0.37798   0.00000  Uiso   1.00
C212   C     0.76353   0.98080   0.27101   0.00000  Uiso   1.00
C213   C     0.77323   0.94216   0.25129   0.00000  Uiso   1.00
C214   C     0.75512   0.93343   0.21437   0.00000  Uiso   1.00
C215   C     0.72725   0.96322   0.19613   0.00000  Uiso   1.00
C216   C     0.71832   1.00227   0.21513   0.00000  Uiso   1.00
C217   C     0.73618   1.01095   0.25233   0.00000  Uiso   1.00
H218   H     0.87191   0.96977   0.43651   0.00000  Uiso   1.00
H219   H     0.89357   0.99473   0.50324   0.00000  Uiso   1.00
H220   H     0.79124   0.09201   0.50106   0.00000  Uiso   1.00
H221   H     0.77054   0.06758   0.43518   0.00000  Uiso   1.00
H222   H     0.81412   0.06795   0.36945   0.00000  Uiso   1.00
H223   H     0.79050   0.05273   0.30169   0.00000  Uiso   1.00
H224   H     0.77545   0.92775   0.33191   0.00000  Uiso   1.00
H225   H     0.80062   0.94303   0.39942   0.00000  Uiso   1.00
H226   H     0.79462   0.91848   0.26450   0.00000  Uiso   1.00
H227   H     0.76257   0.90306   0.20026   0.00000  Uiso   1.00
H228   H     0.69642   1.02553   0.20193   0.00000  Uiso   1.00
H229   H     0.72748   1.04080   0.26701   0.00000  Uiso   1.00
C230   C     0.30756   0.49484   0.52467   0.00000  Uiso   1.00
C231   C     0.34317   0.46670   0.52917   0.00000  Uiso   1.00
C232   C     0.36027   0.44396   0.49646   0.00000  Uiso   1.00
C233   C     0.34251   0.44921   0.45833   0.00000  Uiso   1.00
C234   C     0.30822   0.47918   0.45342   0.00000  Uiso   1.00
C235   C     0.29054   0.50155   0.48652   0.00000  Uiso   1.00
C236   C     0.28583   0.51245   0.56055   0.00000  Uiso   1.00
C237   C     0.30676   0.53536   0.58949   0.00000  Uiso   1.00
C238   C     0.28908   0.54522   0.62660   0.00000  Uiso   1.00
C239   C     0.25041   0.53173   0.63566   0.00000  Uiso   1.00
C240   C     0.22876   0.51040   0.60579   0.00000  Uiso   1.00
C241   C     0.24631   0.50089   0.56865   0.00000  Uiso   1.00
C242   C     0.23319   0.53857   0.67627   0.00000  Uiso   1.00
C243   C     0.21085   0.50863   0.69234   0.00000  Uiso   1.00
C244   C     0.19250   0.51566   0.72937   0.00000  Uiso   1.00
C245   C     0.19630   0.55267   0.75148   0.00000  Uiso   1.00
C246   C     0.22019   0.58189   0.73647   0.00000  Uiso   1.00
C247   C     0.23837   0.57499   0.69921   0.00000  Uiso   1.00
H248   H     0.35634   0.46058   0.55839   0.00000  Uiso   1.00
H249   H     0.38650   0.42094   0.50139   0.00000  Uiso   1.00
H250   H     0.29406   0.48398   0.42438   0.00000  Uiso   1.00
H251   H     0.26299   0.52322   0.48253   0.00000  Uiso   1.00
H252   H     0.33738   0.54445   0.58373   0.00000  Uiso   1.00
H253   H     0.30658   0.56184   0.64869   0.00000  Uiso   1.00
H254   H     0.19855   0.50024   0.61132   0.00000  Uiso   1.00
H255   H     0.23003   0.48259   0.54691   0.00000  Uiso   1.00
H256   H     0.20717   0.47973   0.67616   0.00000  Uiso   1.00
H257   H     0.17441   0.49251   0.74024   0.00000  Uiso   1.00
H258   H     0.22364   0.61075   0.75289   0.00000  Uiso   1.00
H259   H     0.25522   0.59883   0.68786   0.00000  Uiso   1.00
C260   C     0.21915   0.50435   0.02823   0.00000  Uiso   1.00
C261   C     0.20613   0.48137   0.99468   0.00000  Uiso   1.00
C262   C     0.19265   0.50117   0.95998   0.00000  Uiso   1.00
C263   C     0.19217   0.54425   0.95818   0.00000  Uiso   1.00
C264   C     0.20740   0.56672   0.99097   0.00000  Uiso   1.00
C265   C     0.22080   0.54706   0.02540   0.00000  Uiso   1.00
C266   C     0.23032   0.48463   0.06644   0.00000  Uiso   1.00
C267   C     0.22047   0.50646   0.10250   0.00000  Uiso   1.00
C268   C     0.23426   0.49012   0.13844   0.00000  Uiso   1.00
C269   C     0.25761   0.45125   0.13936   0.00000  Uiso   1.00
C270   C     0.26528   0.42812   0.10369   0.00000  Uiso   1.00
C271   C     0.25193   0.44475   0.06751   0.00000  Uiso   1.00
C272   C     0.27747   0.43729   0.17702   0.00000  Uiso   1.00
C273   C     0.27548   0.39706   0.18977   0.00000  Uiso   1.00
C274   C     0.29546   0.38475   0.22535   0.00000  Uiso   1.00
C275   C     0.31830   0.41232   0.24799   0.00000  Uiso   1.00
C276   C     0.32039   0.45224   0.23485   0.00000  Uiso   1.00
C277   C     0.29993   0.46469   0.20005   0.00000  Uiso   1.00
H278   H     0.20498   0.44834   0.99565   0.00000  Uiso   1.00
H279   H     0.18133   0.48300   0.93512   0.00000  Uiso   1.00
H280   H     0.20800   0.59989   0.99051   0.00000  Uiso   1.00
H281   H     0.23215   0.56556   0.05002   0.00000  Uiso   1.00
H282   H     0.20268   0.53664   0.10303   0.00000  Uiso   1.00
H283   H     0.22751   0.50835   0.16560   0.00000  Uiso   1.00
H284   H     0.28345   0.39815   0.10366   0.00000  Uiso   1.00
H285   H     0.26013   0.42709   0.04039   0.00000  Uiso   1.00
H286   H     0.25842   0.37538   0.17231   0.00000  Uiso   1.00
H287   H     0.29389   0.35359   0.23462   0.00000  Uiso   1.00
H288   H     0.33808   0.47400   0.25150   0.00000  Uiso   1.00
H289   H     0.30244   0.49562   0.19062   0.00000  Uiso   1.00
C290   C     0.20355   0.27385   0.47720   0.00000  Uiso   1.00
C291   C     0.24266   0.25732   0.49216   0.00000  Uiso   1.00
C292   C     0.27961   0.26939   0.47757   0.00000  Uiso   1.00
C293   C     0.27791   0.29797   0.44768   0.00000  Uiso   1.00
C294   C     0.23882   0.31459   0.43296   0.00000  Uiso   1.00
C295   C     0.20204   0.30273   0.44761   0.00000  Uiso   1.00
C296   C     0.16430   0.26044   0.49155   0.00000  Uiso   1.00
C297   C     0.12969   0.28952   0.49956   0.00000  Uiso   1.00
C298   C     0.09226   0.27670   0.51206   0.00000  Uiso   1.00
C299   C     0.08859   0.23455   0.51608   0.00000  Uiso   1.00
C300   C     0.12320   0.20551   0.50812   0.00000  Uiso   1.00
C301   C     0.16078   0.21835   0.49618   0.00000  Uiso   1.00
C302   C     0.04931   0.22062   0.52971   0.00000  Uiso   1.00
C303   C     0.03030   0.23884   0.56409   0.00000  Uiso   1.00
C304   C     0.99657   0.22198   0.58002   0.00000  Uiso   1.00
C305   C     0.98093   0.18696   0.56155   0.00000  Uiso   1.00
C306   C     0.99827   0.17049   0.52571   0.00000  Uiso   1.00
C307   C     1.03237   0.18699   0.51012   0.00000  Uiso   1.00
H308   H     0.24458   0.23529   0.51528   0.00000  Uiso   1.00
H309   H     0.30941   0.25620   0.48940   0.00000  Uiso   1.00
H310   H     0.23663   0.33646   0.40967   0.00000  Uiso   1.00
H311   H     0.17237   0.31553   0.43519   0.00000  Uiso   1.00
H312   H     0.13169   0.32219   0.49640   0.00000  Uiso   1.00
H313   H     0.06604   0.29965   0.51812   0.00000  Uiso   1.00
H314   H     0.12132   0.17287   0.51160   0.00000  Uiso   1.00
H315   H     0.18687   0.19528   0.48990   0.00000  Uiso   1.00
H316   H     0.04293   0.26475   0.57976   0.00000  Uiso   1.00
H317   H     0.98389   0.23528   0.60772   0.00000  Uiso   1.00
H318   H     0.98710   0.14336   0.51091   0.00000  Uiso   1.00
H319   H     1.04635   0.17274   0.48332   0.00000  Uiso   1.00
C320   C     0.94725   0.91161   0.69311   0.00000  Uiso   1.00
C321   C     0.93871   0.92723   0.65544   0.00000  Uiso   1.00
C322   C     0.93470   0.96987   0.65041   0.00000  Uiso   1.00
C323   C     0.93989  -0.00241   0.68285   0.00000  Uiso   1.00
C324   C     0.94668   0.98211   0.72073   0.00000  Uiso   1.00
C325   C     0.95024   0.93954   0.72582   0.00000  Uiso   1.00
C326   C     0.95758   0.86665   0.69801   0.00000  Uiso   1.00
C327   C     0.94295   0.84746   0.73052   0.00000  Uiso   1.00
C328   C     0.95920   0.80726   0.73921   0.00000  Uiso   1.00
C329   C     0.99070   0.78595   0.71588   0.00000  Uiso   1.00
C330   C     1.00285   0.80381   0.68166   0.00000  Uiso   1.00
C331   C     0.98628   0.84374   0.67268   0.00000  Uiso   1.00
C332   C     0.01622   0.74960   0.73139   0.00000  Uiso   1.00
C333   C    -0.00216   0.71565   0.74481   0.00000  Uiso   1.00
C334   C     0.02210   0.68487   0.76525   0.00000  Uiso   1.00
C335   C     0.06469   0.68845   0.77335   0.00000  Uiso   1.00
C336   C     0.08324   0.72130   0.75818   0.00000  Uiso   1.00
C337   C     0.05932   0.75147   0.73727   0.00000  Uiso   1.00
H338   H     0.93617   0.90642   0.62973   0.00000  Uiso   1.00
H339   H     0.92917   0.98103   0.62092   0.00000  Uiso   1.00
H340   H     0.95052   0.00281   0.74628   0.00000  Uiso   1.00
H341   H     0.95752   0.92839   0.75510   0.00000  Uiso   1.00
H342   H     0.92047   0.86428   0.75025   0.00000  Uiso   1.00
H343   H     0.94956   0.79414   0.76587   0.00000  Uiso   1.00
H344   H     1.02704   0.78779   0.66323   0.00000  Uiso   1.00
H345   H     0.99822   0.85778   0.64754   0.00000  Uiso   1.00
H346   H    -0.03541   0.71372   0.74074   0.00000  Uiso   1.00
H347   H     0.00706   0.65974   0.77667   0.00000  Uiso   1.00
H348   H     0.11598   0.72467   0.76404   0.00000  Uiso   1.00
H349   H     0.07410   0.77767   0.72778   0.00000  Uiso   1.00
C350   C     0.95196   0.47116   0.81816   0.00000  Uiso   1.00
C351   C     0.96117   0.48571   0.85690   0.00000  Uiso   1.00
C352   C     0.98888   0.51575   0.86343   0.00000  Uiso   1.00
C353   C     0.00757   0.53193   0.83144   0.00000  Uiso   1.00
C354   C    -0.00521   0.52095   0.79274   0.00000  Uiso   1.00
C355   C     0.96729   0.49075   0.78617   0.00000  Uiso   1.00
C356   C     0.93302   0.43162   0.81105   0.00000  Uiso   1.00
C357   C     0.90757   0.42513   0.77739   0.00000  Uiso   1.00
C358   C     0.89857   0.38524   0.76552   0.00000  Uiso   1.00
C359   C     0.91413   0.35129   0.78753   0.00000  Uiso   1.00
C360   C     0.93622   0.35809   0.82304   0.00000  Uiso   1.00
C361   C     0.94579   0.39786   0.83462   0.00000  Uiso   1.00
C362   C     0.91581   0.30910   0.76927   0.00000  Uiso   1.00
C363   C     0.89666   0.27739   0.78615   0.00000  Uiso   1.00
C364   C     0.90178   0.23692   0.76911   0.00000  Uiso   1.00
C365   C     0.92751   0.22786   0.73621   0.00000  Uiso   1.00
C366   C     0.94635   0.25973   0.71962   0.00000  Uiso   1.00
C367   C     0.94011   0.29997   0.73562   0.00000  Uiso   1.00
H368   H     0.94901   0.47208   0.88217   0.00000  Uiso   1.00
H369   H     0.99766   0.52441   0.89358   0.00000  Uiso   1.00
H370   H     0.00857   0.53320   0.76753   0.00000  Uiso   1.00
H371   H     0.96098   0.48038   0.75593   0.00000  Uiso   1.00
H372   H     0.89673   0.45051   0.75894   0.00000  Uiso   1.00
H373   H     0.88170   0.38047   0.73784   0.00000  Uiso   1.00
H374   H     0.94928   0.33219   0.83991   0.00000  Uiso   1.00
H375   H     0.96620   0.40145   0.86022   0.00000  Uiso   1.00
H376   H     0.87787   0.28399   0.81227   0.00000  Uiso   1.00
H377   H     0.88679   0.21272   0.78216   0.00000  Uiso   1.00
H378   H     0.96563   0.25355   0.69376   0.00000  Uiso   1.00
H379   H     0.95527   0.32393   0.72230   0.00000  Uiso   1.00
C380   C     0.79883   0.78855   0.03088   0.00000  Uiso   1.00
C381   C     0.78422   0.77079   0.06418   0.00000  Uiso   1.00
C382   C     0.74629   0.78658   0.08092   0.00000  Uiso   1.00
C383   C     0.72183   0.82009   0.06440   0.00000  Uiso   1.00
C384   C     0.73620   0.83747   0.03069   0.00000  Uiso   1.00
C385   C     0.77449   0.82205   1.01431   0.00000  Uiso   1.00
C386   C     0.83961   0.77235   1.01390   0.00000  Uiso   1.00
C387   C     0.85062   0.72954   1.00905   0.00000  Uiso   1.00
C388   C     0.88924   0.71418   0.99351   0.00000  Uiso   1.00
C389   C     0.91789   0.74127   0.98297   0.00000  Uiso   1.00
C390   C     0.90705   0.78411  -0.01190   0.00000  Uiso   1.00
C391   C     0.86807   0.79951   0.00306   0.00000  Uiso   1.00
C392   C     0.95838   0.72461   0.96560   0.00000  Uiso   1.00
C393   C     0.99596   0.74013   0.97819   0.00000  Uiso   1.00
C394   C     0.03406   0.72351   0.96190   0.00000  Uiso   1.00
C395   C     0.03503   0.69119   0.93284   0.00000  Uiso   1.00
C396   C     0.99742   0.67602   0.92009   0.00000  Uiso   1.00
C397   C     0.95952   0.69264   0.93619   0.00000  Uiso   1.00
H398   H     0.80265   0.74524   0.07779   0.00000  Uiso   1.00
H399   H     0.73626   0.77267   0.10702   0.00000  Uiso   1.00
H400   H     0.71816   0.86334   0.01729   0.00000  Uiso   1.00
H401   H     0.78501   0.83614   0.98852   0.00000  Uiso   1.00
H402   H     0.82916   0.70791   1.01689   0.00000  Uiso   1.00
H403   H     0.89685   0.68101   0.99000   0.00000  Uiso   1.00
H404   H     0.92842   0.80567  -0.02006   0.00000  Uiso   1.00
H405   H     0.86034   0.83266   0.00665   0.00000  Uiso   1.00
H406   H     0.99588   0.76464   1.00099   0.00000  Uiso   1.00
H407   H     0.06272   0.73558   0.97224   0.00000  Uiso   1.00
H408   H     0.99716   0.65166   0.89712   0.00000  Uiso   1.00
H409   H     0.93093   0.68085   0.92525   0.00000  Uiso   1.00
C410   C     0.54981   0.70778   0.28909   0.00000  Uiso   1.00
C411   C     0.52109   0.73921   0.27409   0.00000  Uiso   1.00
C412   C     0.53462   0.76988   0.25158   0.00000  Uiso   1.00
C413   C     0.57722   0.77016   0.24403   0.00000  Uiso   1.00
C414   C     0.60634   0.74142   0.26229   0.00000  Uiso   1.00
C415   C     0.59277   0.71044   0.28460   0.00000  Uiso   1.00
C416   C     0.53475   0.66964   0.30372   0.00000  Uiso   1.00
C417   C     0.55636   0.64665   0.33357   0.00000  Uiso   1.00
C418   C     0.54401   0.60831   0.34329   0.00000  Uiso   1.00
C419   C     0.50999   0.59237   0.32320   0.00000  Uiso   1.00
C420   C     0.48746   0.61632   0.29485   0.00000  Uiso   1.00
C421   C     0.49990   0.65400   0.28492   0.00000  Uiso   1.00
C422   C     0.49810   0.55043   0.32981   0.00000  Uiso   1.00
C423   C     0.48577   0.52593   0.29714   0.00000  Uiso   1.00
C424   C     0.46812   0.48955   0.30252   0.00000  Uiso   1.00
C425   C     0.46322   0.47608   0.34064   0.00000  Uiso   1.00
C426   C     0.47832   0.49859   0.37346   0.00000  Uiso   1.00
C427   C     0.49563   0.53573   0.36806   0.00000  Uiso   1.00
H428   H     0.48782   0.73872   0.27778   0.00000  Uiso   1.00
H429   H     0.51147   0.79176   0.23803   0.00000  Uiso   1.00
H430   H     0.63946   0.74112   0.25708   0.00000  Uiso   1.00
H431   H     0.61580   0.68688   0.29569   0.00000  Uiso   1.00
H432   H     0.58313   0.65793   0.34895   0.00000  Uiso   1.00
H433   H     0.56181   0.59062   0.36550   0.00000  Uiso   1.00
H434   H     0.46045   0.60545   0.27954   0.00000  Uiso   1.00
H435   H     0.48296   0.67001   0.26118   0.00000  Uiso   1.00
H436   H     0.48836   0.53569   0.26724   0.00000  Uiso   1.00
H437   H     0.45695   0.47254   0.27675   0.00000  Uiso   1.00
H438   H     0.47446   0.48886   0.40319   0.00000  Uiso   1.00
H439   H     0.50493   0.55397   0.39377   0.00000  Uiso   1.00
loop_
_geom_bond_atom_site_label_1
_geom_bond_atom_site_label_2
_geom_bond_distance
_geom_bond_site_symmetry_2
_ccdc_geom_bond_type
C0     O11     1.264   .     A
C0     O12     1.263   .     A
C0     C353    1.475   .     S
Sm1    O5      2.248   .     S
Sm1    O6      2.268   .     S
Sm1    O8      2.231   .     S
Sm1    O9      2.247   .     S
Sm1    O10     2.276   .     S
Sm1    O13     2.231   .     S
Sm2    O7      2.264   .     S
Sm2    O11     2.262   .     S
Sm2    O12     2.267   .     S
Sm2    O14     2.267   .     S
Sm2    O15     2.264   .     S
Sm2    O16     2.258   .     S
C3     O13     1.270   .     A
C3     O14     1.276   .     A
C3     C263    1.482   .     S
C4     O15     1.265   .     A
C4     O16     1.267   .     A
C4     C245    1.479   .     S
O5     C17     1.263   .     A
O6     C17     1.269   .     A
O7     C18     1.275   .     A
O8     C18     1.272   .     A
O9     C19     1.260   .     A
O10    C19     1.269   .     A
C17    C95     1.475   .     S
C18    C335    1.472   .     S
C19    C395    1.474   .     S
C20    O31     1.280   .     A
C20    O32     1.282   .     A
C20    C413    1.478   .     S
Sm21   O25     2.229   .     S
Sm21   O26     2.219   .     S
Sm21   O28     2.236   .     S
Sm21   O29     2.211   .     S
Sm21   O30     2.238   .     S
Sm21   O33     2.233   .     S
Sm22   O27     2.266   .     S
Sm22   O31     2.228   .     S
Sm22   O32     2.230   .     S
Sm22   O34     2.272   .     S
Sm22   O35     2.234   .     S
Sm22   O36     2.231   .     S
C23    O33     1.269   .     A
C23    O34     1.278   .     A
C23    C383    1.480   .     S
C24    O35     1.280   .     A
C24    O36     1.281   .     A
C24    C83     1.477   .     S
O25    C37     1.284   .     A
O26    C37     1.282   .     A
O27    C38     1.269   .     A
O28    C38     1.267   .     A
O29    C39     1.279   .     A
O30    C39     1.286   .     A
C37    C185    1.475   1_554 S
C38    C125    1.484   .     S
C39    C215    1.473   .     S
C40    O51     1.270   .     A
C40    O52     1.264   .     A
C40    C203    1.473   .     S
Sm41   O45     2.290   .     S
Sm41   O46     2.245   .     S
Sm41   O48     2.313   .     S
Sm41   O49     2.237   .     S
Sm41   O50     2.231   .     S
Sm41   O53     2.287   .     S
Sm42   O47     2.213   .     S
Sm42   O51     2.291   .     S
Sm42   O52     2.243   .     S
Sm42   O54     2.209   .     S
Sm42   O55     2.297   .     S
Sm42   O56     2.245   .     S
C43    O53     1.276   .     A
C43    O54     1.263   .     A
C43    C305    1.478   .     S
C44    O55     1.267   .     A
C44    O56     1.264   .     A
C44    C143    1.468   .     S
O45    C57     1.271   .     A
O46    C57     1.259   .     A
O47    C58     1.272   .     A
O48    C58     1.292   .     A
O49    C59     1.280   .     A
O50    C59     1.281   .     A
C57    C365    1.470   .     S
C58    C173    1.481   .     S
C59    C323    1.476   .     S
C60    O71     1.270   .     A
C60    O72     1.267   .     A
C60    C275    1.475   .     S
Sm61   O65     2.295   .     S
Sm61   O66     2.252   .     S
Sm61   O68     2.257   .     S
Sm61   O69     2.234   .     S
Sm61   O70     2.269   .     S
Sm61   O73     2.279   .     S
Sm62   O67     2.244   .     S
Sm62   O71     2.281   .     S
Sm62   O72     2.248   .     S
Sm62   O74     2.243   .     S
Sm62   O75     2.282   .     S
Sm62   O76     2.243   .     S
C63    O73     1.279   .     A
C63    O74     1.273   .     A
C63    C113    1.482   .     S
C64    O75     1.269   .     A
C64    O76     1.267   .     A
C64    C425    1.470   .     S
O65    C77     1.269   .     A
O66    C77     1.269   .     A
O67    C78     1.271   .     A
O68    C78     1.272   .     A
O69    C79     1.265   .     A
O70    C79     1.275   .     A
C77    C155    1.471   .     S
C78    C233    1.481   .     S
C79    C293    1.473   .     S
C80    C81     1.404   .     A
C80    C86     1.480   .     S
C80    C85     1.403   1_556 A
C81    C82     1.400   .     A
C81    H98     1.082   .     S
C82    H99     1.083   .     S
C82    C83     1.406   1_556 A
C83    C84     1.404   .     A
C83    C82     1.406   1_554 A
C84    C85     1.396   .     A
C84    H100    1.083   .     S
C85    H101    1.083   .     S
C85    C80     1.403   1_554 A
C86    C87     1.405   .     A
C86    C91     1.405   .     A
C87    C88     1.395   .     A
C87    H102    1.084   1_556 S
C88    C89     1.405   .     A
C88    H103    1.084   1_556 S
C89    C90     1.407   .     A
C89    C92     1.482   .     S
C90    C91     1.401   .     A
C90    H104    1.084   .     S
C91    H105    1.084   .     S
C92    C93     1.404   .     A
C92    C97     1.406   .     A
C93    C94     1.397   .     A
C93    H106    1.083   .     S
C94    C95     1.405   .     A
C94    H107    1.083   .     S
C95    C96     1.403   .     A
C96    C97     1.398   .     A
C96    H108    1.083   .     S
C97    H109    1.083   .     S
H102   C87     1.084   1_554 S
H103   C88     1.084   1_554 S
C110   C111    1.405   .     A
C110   C115    1.409   .     A
C110   C116    1.492   .     S
C111   C112    1.398   .     A
C111   H128    1.083   .     S
C112   C113    1.407   .     A
C112   H129    1.082   .     S
C113   C114    1.404   .     A
C114   C115    1.401   .     A
C114   H130    1.084   .     S
C115   H131    1.082   .     S
C116   C117    1.403   .     A
C116   C121    1.408   .     A
C117   C118    1.398   .     A
C117   H132    1.082   .     S
C118   C119    1.408   .     A
C118   H133    1.082   .     S
C119   C120    1.407   .     A
C119   C122    1.495   .     S
C120   C121    1.401   .     A
C120   H134    1.082   .     S
C121   H135    1.082   .     S
C122   C123    1.411   .     A
C122   C127    1.405   .     A
C123   H136    1.082   .     S
C123   C124    1.406   1_545 A
C124   C125    1.406   .     A
C124   H137    1.082   .     S
C124   C123    1.406   1_565 A
C125   C126    1.404   .     A
C126   H138    1.083   .     S
C126   C127    1.393   1_565 A
C127   H139    1.082   .     S
C127   C126    1.393   1_545 A
C140   C141    1.401   .     A
C140   C145    1.404   .     A
C140   C146    1.475   .     S
C141   C142    1.389   .     A
C141   H158    1.083   .     S
C142   C143    1.402   .     A
C142   H159    1.083   .     S
C143   C144    1.405   .     A
C144   C145    1.404   .     A
C144   H160    1.082   .     S
C145   H161    1.082   .     S
C146   C147    1.405   .     A
C146   C151    1.401   .     A
C147   C148    1.394   .     A
C147   H162    1.084   .     S
C148   C149    1.402   .     A
C148   H163    1.084   .     S
C149   C150    1.409   .     A
C149   C152    1.479   .     S
C150   C151    1.401   .     A
C150   H164    1.084   .     S
C151   H165    1.084   .     S
C152   C153    1.401   .     A
C152   C157    1.409   .     A
C153   C154    1.390   .     A
C153   H166    1.084   .     S
C154   C155    1.403   .     A
C154   H167    1.083   .     S
C155   C156    1.403   .     A
C156   C157    1.405   .     A
C156   H168    1.083   .     S
C157   H169    1.083   .     S
C170   C171    1.409   .     A
C170   C175    1.407   .     A
C170   C176    1.491   .     S
C171   C172    1.401   .     A
C171   H188    1.084   .     S
C172   C173    1.406   .     A
C172   H189    1.083   .     S
C173   C174    1.404   .     A
C174   C175    1.395   .     A
C174   H190    1.083   .     S
C175   H191    1.082   .     S
C176   C177    1.409   .     A
C176   C181    1.409   1_545 A
C177   C178    1.397   .     A
C177   H192    1.082   .     S
C178   H193    1.083   .     S
C178   C179    1.399   1_545 A
C179   C180    1.400   .     A
C179   C182    1.471   .     S
C179   C178    1.399   1_565 A
C180   C181    1.399   .     A
C180   H194    1.083   .     S
C181   H195    1.082   .     S
C181   C176    1.409   1_565 A
C182   C183    1.402   .     A
C182   C187    1.401   .     A
C183   C184    1.400   .     A
C183   H196    1.083   .     S
C184   C185    1.406   .     A
C184   H197    1.084   .     S
C185   C186    1.405   .     A
C185   C37     1.475   1_556 S
C186   C187    1.396   .     A
C186   H198    1.083   1_556 S
C187   H199    1.084   .     S
H198   C186    1.083   1_554 S
C200   C201    1.407   .     A
C200   C206    1.474   .     S
C200   C205    1.399   1_565 A
C201   C202    1.404   .     A
C201   H218    1.083   .     S
C202   H219    1.083   .     S
C202   C203    1.404   1_565 A
C203   C204    1.406   .     A
C203   C202    1.404   1_545 A
C204   C205    1.389   .     A
C204   H220    1.084   .     S
C205   H221    1.084   .     S
C205   C200    1.399   1_545 A
C206   C211    1.400   .     A
C206   C207    1.403   1_565 A
C207   H222    1.083   .     S
C207   C206    1.403   1_545 A
C207   C208    1.394   1_545 A
C208   C209    1.404   .     A
C208   C207    1.394   1_565 A
C208   H223    1.082   1_565 S
C209   C210    1.409   .     A
C209   C212    1.485   .     S
C210   C211    1.399   .     A
C210   H224    1.083   .     S
C211   H225    1.082   .     S
C212   C213    1.404   .     A
C212   C217    1.409   .     A
C213   C214    1.394   .     A
C213   H226    1.083   .     S
C214   C215    1.404   .     A
C214   H227    1.083   .     S
C215   C216    1.402   .     A
C216   C217    1.399   .     A
C216   H228    1.083   .     S
C217   H229    1.083   .     S
H223   C208    1.082   1_545 S
C230   C231    1.399   .     A
C230   C235    1.407   .     A
C230   C236    1.477   .     S
C231   C232    1.393   .     A
C231   H248    1.084   .     S
C232   C233    1.408   .     A
C232   H249    1.083   .     S
C233   C234    1.406   .     A
C234   C235    1.405   .     A
C234   H250    1.083   .     S
C235   H251    1.083   .     S
C236   C237    1.404   .     A
C236   C241    1.401   .     A
C237   C238    1.400   .     A
C237   H252    1.084   .     S
C238   C239    1.409   .     A
C238   H253    1.083   .     S
C239   C240    1.410   .     A
C239   C242    1.492   .     S
C240   C241    1.398   .     A
C240   H254    1.083   .     S
C241   H255    1.084   .     S
C242   C243    1.408   .     A
C242   C247    1.408   .     A
C243   C244    1.396   .     A
C243   H256    1.081   .     S
C244   C245    1.402   .     A
C244   H257    1.083   .     S
C245   C246    1.406   .     A
C246   C247    1.401   .     A
C246   H258    1.083   .     S
C247   H259    1.083   .     S
C260   C265    1.405   .     A
C260   C266    1.490   .     S
C260   C261    1.408   1_554 A
C261   C262    1.403   .     A
C261   H278    1.082   .     S
C261   C260    1.408   1_556 A
C262   C263    1.405   .     A
C262   H279    1.082   .     S
C263   C264    1.405   .     A
C264   H280    1.083   .     S
C264   C265    1.393   1_556 A
C265   H281    1.083   .     S
C265   C264    1.393   1_554 A
C266   C267    1.408   .     A
C266   C271    1.408   .     A
C267   C268    1.394   .     A
C267   H282    1.083   .     S
C268   C269    1.403   .     A
C268   H283    1.083   .     S
C269   C270    1.404   .     A
C269   C272    1.480   .     S
C270   C271    1.401   .     A
C270   H284    1.083   .     S
C271   H285    1.082   .     S
C272   C273    1.407   .     A
C272   C277    1.402   .     A
C273   C274    1.405   .     A
C273   H286    1.084   .     S
C274   C275    1.406   .     A
C274   H287    1.083   .     S
C275   C276    1.403   .     A
C276   C277    1.390   .     A
C276   H288    1.083   .     S
C277   H289    1.083   .     S
C290   C291    1.407   .     A
C290   C295    1.402   .     A
C290   C296    1.480   .     S
C291   C292    1.400   .     A
C291   H308    1.083   .     S
C292   C293    1.403   .     A
C292   H309    1.083   .     S
C293   C294    1.405   .     A
C294   C295    1.393   .     A
C294   H310    1.083   .     S
C295   H311    1.083   .     S
C296   C297    1.406   .     A
C296   C301    1.404   .     A
C297   C298    1.397   .     A
C297   H312    1.083   .     S
C298   C299    1.403   .     A
C298   H313    1.083   .     S
C299   C300    1.405   .     A
C299   C302    1.479   .     S
C300   C301    1.396   .     A
C300   H314    1.083   .     S
C301   H315    1.083   .     S
C302   C303    1.404   .     A
C302   C307    1.405   1_455 A
C303   H316    1.084   .     S
C303   C304    1.398   1_455 A
C304   C305    1.407   .     A
C304   H317    1.083   .     S
C304   C303    1.398   1_655 A
C305   C306    1.406   .     A
C306   C307    1.398   .     A
C306   H318    1.084   .     S
C307   H319    1.084   .     S
C307   C302    1.405   1_655 A
C320   C321    1.405   .     A
C320   C325    1.406   .     A
C320   C326    1.483   .     S
C321   C322    1.399   .     A
C321   H338    1.083   .     S
C322   H339    1.082   .     S
C322   C323    1.405   1_565 A
C323   C322    1.405   1_545 A
C323   C324    1.403   1_545 A
C324   C325    1.397   .     A
C324   C323    1.403   1_565 A
C324   H340    1.083   1_565 S
C325   H341    1.082   .     S
C326   C327    1.406   .     A
C326   C331    1.405   .     A
C327   C328    1.399   .     A
C327   H342    1.083   .     S
C328   C329    1.404   .     A
C328   H343    1.082   .     S
C329   C330    1.403   .     A
C329   C332    1.477   1_655 S
C330   C331    1.396   .     A
C330   H344    1.083   .     S
C331   H345    1.082   .     S
C332   C333    1.407   .     A
C332   C337    1.404   .     A
C332   C329    1.477   1_455 S
C333   C334    1.402   .     A
C333   H346    1.084   .     S
C334   C335    1.407   .     A
C334   H347    1.085   .     S
C335   C336    1.403   .     A
C336   C337    1.392   .     A
C336   H348    1.083   .     S
C337   H349    1.085   .     S
H340   C324    1.083   1_545 S
C350   C351    1.407   .     A
C350   C355    1.408   .     A
C350   C356    1.489   .     S
C351   C352    1.398   .     A
C351   H368    1.082   .     S
C352   H369    1.083   .     S
C352   C353    1.402   1_655 A
C353   C354    1.403   .     A
C353   C352    1.402   1_455 A
C354   H370    1.083   .     S
C354   C355    1.398   1_455 A
C355   H371    1.082   .     S
C355   C354    1.398   1_655 A
C356   C357    1.406   .     A
C356   C361    1.409   .     A
C357   C358    1.399   .     A
C357   H372    1.082   .     S
C358   C359    1.403   .     A
C358   H373    1.083   .     S
C359   C360    1.400   .     A
C359   C362    1.475   .     S
C360   C361    1.398   .     A
C360   H374    1.083   .     S
C361   H375    1.083   .     S
C362   C363    1.408   .     A
C362   C367    1.400   .     A
C363   C364    1.407   .     A
C363   H376    1.083   .     S
C364   C365    1.405   .     A
C364   H377    1.083   .     S
C365   C366    1.402   .     A
C366   C367    1.389   .     A
C366   H378    1.084   .     S
C367   H379    1.084   .     S
C380   C381    1.404   .     A
C380   C385    1.405   1_554 A
C380   C386    1.481   1_554 S
C381   C382    1.396   .     A
C381   H398    1.084   .     S
C382   C383    1.406   .     A
C382   H399    1.083   .     S
C383   C384    1.406   .     A
C384   H400    1.082   .     S
C384   C385    1.398   1_554 A
C385   H401    1.083   .     S
C385   C380    1.405   1_556 A
C385   C384    1.398   1_556 A
C386   C387    1.404   .     A
C386   C380    1.481   1_556 S
C386   C391    1.406   1_556 A
C387   C388    1.395   .     A
C387   H402    1.084   .     S
C388   C389    1.406   .     A
C388   H403    1.083   .     S
C389   C392    1.482   .     S
C389   C390    1.405   1_556 A
C390   C391    1.399   .     A
C390   H404    1.083   .     S
C390   C389    1.405   1_554 A
C391   H405    1.083   .     S
C391   C386    1.406   1_554 A
C392   C393    1.408   .     A
C392   C397    1.403   .     A
C393   H406    1.083   .     S
C393   C394    1.402   1_655 A
C394   C395    1.403   .     A
C394   H407    1.083   .     S
C394   C393    1.402   1_455 A
C395   C396    1.405   1_455 A
C396   C397    1.393   .     A
C396   H408    1.084   .     S
C396   C395    1.405   1_655 A
C397   H409    1.084   .     S
C410   C411    1.409   .     A
C410   C415    1.407   .     A
C410   C416    1.491   .     S
C411   C412    1.396   .     A
C411   H428    1.083   .     S
C412   C413    1.402   .     A
C412   H429    1.083   .     S
C413   C414    1.406   .     A
C414   C415    1.400   .     A
C414   H430    1.083   .     S
C415   H431    1.082   .     S
C416   C417    1.411   .     A
C416   C421    1.405   .     A
C417   C418    1.406   .     A
C417   H432    1.083   .     S
C418   C419    1.407   .     A
C418   H433    1.083   .     S
C419   C420    1.404   .     A
C419   C422    1.485   .     S
C420   C421    1.389   .     A
C420   H434    1.083   .     S
C421   H435    1.082   .     S
C422   C423    1.405   .     A
C422   C427    1.408   .     A
C423   C424    1.389   .     A
C423   H436    1.082   .     S
C424   C425    1.400   .     A
C424   H437    1.084   .     S
C425   C426    1.405   .     A
C426   C427    1.406   .     A
C426   H438    1.083   .     S
C427   H439    1.083   .     S
