data_lcy+N123+E225
_audit_creation_date              2025-01-21
_audit_creation_method            'Materials Studio'
_symmetry_space_group_name_H-M    'P1'
_symmetry_Int_Tables_number       1
_symmetry_cell_setting            triclinic
loop_
_symmetry_equiv_pos_as_xyz
  x,y,z
_cell_length_a                    34.0504
_cell_length_b                    27.7777
_cell_length_c                    34.1987
_cell_angle_alpha                 92.4738
_cell_angle_beta                  98.6834
_cell_angle_gamma                 92.1400
loop_
_atom_site_label
_atom_site_type_symbol
_atom_site_fract_x
_atom_site_fract_y
_atom_site_fract_z
_atom_site_U_iso_or_equiv
_atom_site_adp_type
_atom_site_occupancy
Ce0    Ce    0.17257   0.62057   0.86607   0.00000  Uiso   1.00
Ce1    Ce    0.10855   0.64710   0.91679   0.00000  Uiso   1.00
C2     C     0.18644   0.67720   0.94778   0.00000  Uiso   1.00
C3     C     0.22217   0.59304   0.81561   0.00000  Uiso   1.00
C4     C     0.10389   0.69325   0.83033   0.00000  Uiso   1.00
C5     C     0.11617   0.55089   0.84341   0.00000  Uiso   1.00
C6     C     0.04951   0.66282   0.95927   0.00000  Uiso   1.00
C7     C     0.17382   0.56675   0.94899   0.00000  Uiso   1.00
O8     O     0.16320   0.65912   0.96694   0.00000  Uiso   1.00
O9     O     0.16904   0.68281   0.90956   0.00000  Uiso   1.00
O10    O     0.23038   0.62914   0.84042   0.00000  Uiso   1.00
O11    O     0.18955   0.56971   0.81794   0.00000  Uiso   1.00
O12    O     0.13523   0.67042   0.82387   0.00000  Uiso   1.00
O13    O     0.08809   0.69137   0.86259   0.00000  Uiso   1.00
O14    O     0.14688   0.55224   0.82870   0.00000  Uiso   1.00
O15    O     0.11445   0.58820   0.87129   0.00000  Uiso   1.00
O16    O     0.04965   0.62593   0.93577   0.00000  Uiso   1.00
O17    O     0.08006   0.69175   0.96167   0.00000  Uiso   1.00
O18    O     0.14224   0.58961   0.95487   0.00000  Uiso   1.00
O19    O     0.19265   0.57305   0.91904   0.00000  Uiso   1.00
Ce20   Ce    0.61557   0.92845   0.13220   0.00000  Uiso   1.00
Ce21   Ce    0.66048   0.84240   0.12403   0.00000  Uiso   1.00
C22    C     0.59305   0.81956   0.07288   0.00000  Uiso   1.00
C23    C     0.54643   0.95235   0.15523   0.00000  Uiso   1.00
C24    C     0.66962   0.92382   0.06129   0.00000  Uiso   1.00
C25    C     0.67944   0.95717   0.18312   0.00000  Uiso   1.00
C26    C     0.70463   0.76704   0.11011   0.00000  Uiso   1.00
C27    C     0.60952   0.83886   0.19345   0.00000  Uiso   1.00
O28    O     0.62261   0.79540   0.07466   0.00000  Uiso   1.00
O29    O     0.59548   0.85610   0.10239   0.00000  Uiso   1.00
O30    O     0.55513   0.96105   0.12113   0.00000  Uiso   1.00
O31    O     0.57158   0.92717   0.17651   0.00000  Uiso   1.00
O32    O     0.64506   0.94879   0.07798   0.00000  Uiso   1.00
O33    O     0.68116   0.88298   0.07368   0.00000  Uiso   1.00
O34    O     0.65243   0.98422   0.17293   0.00000  Uiso   1.00
O35    O     0.67571   0.91103   0.16366   0.00000  Uiso   1.00
O36    O     0.71723   0.80217   0.13456   0.00000  Uiso   1.00
O37    O     0.66825   0.76879   0.09400   0.00000  Uiso   1.00
O38    O     0.63272   0.81396   0.17485   0.00000  Uiso   1.00
O39    O     0.59915   0.88243   0.18474   0.00000  Uiso   1.00
Ce40   Ce    0.87615   0.13596   0.57851   0.00000  Uiso   1.00
Ce41   Ce    0.82884   0.11791   0.65110   0.00000  Uiso   1.00
C42    C     0.80200   0.07075   0.57828   0.00000  Uiso   1.00
C43    C     0.92276   0.14942   0.52281   0.00000  Uiso   1.00
C44    C     0.91599   0.07028   0.65196   0.00000  Uiso   1.00
C45    C     0.90342   0.18342   0.65087   0.00000  Uiso   1.00
C46    C     0.78670   0.10142   0.71017   0.00000  Uiso   1.00
C47    C     0.78946   0.18460   0.57805   0.00000  Uiso   1.00
O48    O     0.78025   0.08965   0.59846   0.00000  Uiso   1.00
O49    O     0.84030   0.07413   0.59691   0.00000  Uiso   1.00
O50    O     0.90185   0.11051   0.52395   0.00000  Uiso   1.00
O51    O     0.91785   0.18255   0.54853   0.00000  Uiso   1.00
O52    O     0.92025   0.09021   0.61886   0.00000  Uiso   1.00
O53    O     0.88532   0.07520   0.67019   0.00000  Uiso   1.00
O54    O     0.92473   0.16279   0.63117   0.00000  Uiso   1.00
O55    O     0.86483   0.18015   0.63262   0.00000  Uiso   1.00
O56    O     0.80500   0.14178   0.70722   0.00000  Uiso   1.00
O57    O     0.78962   0.06967   0.68272   0.00000  Uiso   1.00
O58    O     0.78595   0.16598   0.61187   0.00000  Uiso   1.00
O59    O     0.81905   0.17782   0.55848   0.00000  Uiso   1.00
Ce60   Ce    0.38737   0.43990   0.38214   0.00000  Uiso   1.00
Ce61   Ce    0.33330   0.35327   0.39344   0.00000  Uiso   1.00
C62    C     0.41476   0.33842   0.40927   0.00000  Uiso   1.00
C63    C     0.45962   0.45776   0.36214   0.00000  Uiso   1.00
C64    C     0.32715   0.44804   0.44927   0.00000  Uiso   1.00
C65    C     0.32773   0.45440   0.32600   0.00000  Uiso   1.00
C66    C     0.28094   0.28157   0.40331   0.00000  Uiso   1.00
C67    C     0.38536   0.34247   0.32119   0.00000  Uiso   1.00
O68    O     0.39010   0.30964   0.39144   0.00000  Uiso   1.00
O69    O     0.39749   0.37852   0.42274   0.00000  Uiso   1.00
O70    O     0.44976   0.47409   0.39459   0.00000  Uiso   1.00
O71    O     0.43436   0.42705   0.34210   0.00000  Uiso   1.00
O72    O     0.35362   0.46984   0.43189   0.00000  Uiso   1.00
O73    O     0.31397   0.40421   0.44023   0.00000  Uiso   1.00
O74    O     0.35566   0.48428   0.33435   0.00000  Uiso   1.00
O75    O     0.32874   0.41517   0.35083   0.00000  Uiso   1.00
O76    O     0.27458   0.31086   0.37551   0.00000  Uiso   1.00
O77    O     0.31541   0.28664   0.42433   0.00000  Uiso   1.00
O78    O     0.35886   0.32205   0.33949   0.00000  Uiso   1.00
O79    O     0.40240   0.38484   0.33216   0.00000  Uiso   1.00
C80    C     0.55548   0.80668   0.04645   0.00000  Uiso   1.00
C81    C     0.52055   0.82876   0.05337   0.00000  Uiso   1.00
C82    C     0.48400   0.81427   0.03096   0.00000  Uiso   1.00
C83    C     0.48170   0.77701   0.00139   0.00000  Uiso   1.00
C84    C     0.51680   0.75696   0.99297   0.00000  Uiso   1.00
C85    C     0.55347   0.77122   0.01562   0.00000  Uiso   1.00
C86    C     0.41486   0.75109   0.00231   0.00000  Uiso   1.00
H87    H     0.24339   0.70587   0.90566   0.00000  Uiso   1.00
H88    H     0.31224   0.72799   0.92927   0.00000  Uiso   1.00
H89    H     0.29437   0.69930   0.04880   0.00000  Uiso   1.00
H90    H     0.22406   0.67787   0.02446   0.00000  Uiso   1.00
H91    H     0.37305   0.73279   0.95276   0.00000  Uiso   1.00
O92    O     0.34904   0.72741   0.00860   0.00000  Uiso   1.00
O93    O     0.44522   0.75992   0.97954   0.00000  Uiso   1.00
C94    C     0.22844   0.69042   0.96317   0.00000  Uiso   1.00
C95    C     0.25421   0.70447   0.93702   0.00000  Uiso   1.00
C96    C     0.29425   0.71668   0.95084   0.00000  Uiso   1.00
C97    C     0.30946   0.71467   0.99153   0.00000  Uiso   1.00
C98    C     0.28340   0.70064   0.01746   0.00000  Uiso   1.00
C99    C     0.24334   0.68850   1.00358   0.00000  Uiso   1.00
C100   C     0.37834   0.73709   0.98473   0.00000  Uiso   1.00
H101   H     0.45747   0.83168   0.03697   0.00000  Uiso   1.00
H102   H     0.51549   0.72912   0.96960   0.00000  Uiso   1.00
H103   H     0.52126   0.85647   0.07679   0.00000  Uiso   1.00
H104   H     0.42074   0.75412   0.03453   0.00000  Uiso   1.00
H105   H     0.58008   0.75415   1.00941   0.00000  Uiso   1.00
C106   C     0.39918   0.31247   0.28959   0.00000  Uiso   1.00
C107   C     0.43788   0.31851   0.28041   0.00000  Uiso   1.00
C108   C     0.45256   0.28406   0.25575   0.00000  Uiso   1.00
C109   C     0.42923   0.24271   0.24087   0.00000  Uiso   1.00
C110   C     0.38974   0.23838   0.24802   0.00000  Uiso   1.00
C111   C     0.37499   0.27276   0.27216   0.00000  Uiso   1.00
C112   C     0.43708   0.15920   0.22885   0.00000  Uiso   1.00
H113   H     0.48854   1.00352   0.11406   0.00000  Uiso   1.00
H114   H     0.44411   0.05794   0.14224   0.00000  Uiso   1.00
H115   H     0.48406   0.00805   0.25840   0.00000  Uiso   1.00
H116   H     0.52904   0.95360   0.23052   0.00000  Uiso   1.00
H117   H     0.46444   0.12884   0.18366   0.00000  Uiso   1.00
O118   O     0.44260   0.07478   0.22078   0.00000  Uiso   1.00
O119   O     0.44570   0.20675   0.21897   0.00000  Uiso   1.00
C120   C     0.51270   0.97483   0.17026   0.00000  Uiso   1.00
C121   C     0.48742   1.00348   0.14553   0.00000  Uiso   1.00
C122   C     0.46245   0.03508   0.16161   0.00000  Uiso   1.00
C123   C     0.46274   0.03887   0.20276   0.00000  Uiso   1.00
C124   C     0.48463   0.00663   0.22680   0.00000  Uiso   1.00
C125   C     0.50988   0.97520   0.21080   0.00000  Uiso   1.00
C126   C     0.44871   0.12181   0.20838   0.00000  Uiso   1.00
H127   H     0.48275   0.28848   0.24965   0.00000  Uiso   1.00
H128   H     0.37063   0.20775   0.23561   0.00000  Uiso   1.00
H129   H     0.45735   0.34845   0.29371   0.00000  Uiso   1.00
H130   H     0.42275   0.15206   0.25449   0.00000  Uiso   1.00
H131   H     0.34488   0.26734   0.27823   0.00000  Uiso   1.00
C132   C     0.75692   0.21477   0.56117   0.00000  Uiso   1.00
C133   C     0.74307   0.21338   0.52032   0.00000  Uiso   1.00
C134   C     0.70941   0.23850   0.50547   0.00000  Uiso   1.00
C135   C     0.68979   0.26659   0.53147   0.00000  Uiso   1.00
C136   C     0.70485   0.26899   0.57192   0.00000  Uiso   1.00
C137   C     0.73771   0.24319   0.58672   0.00000  Uiso   1.00
C138   C     0.63723   0.29192   0.48047   0.00000  Uiso   1.00
H139   H     0.45432   0.27476   0.36858   0.00000  Uiso   1.00
H140   H     0.52601   0.26137   0.37904   0.00000  Uiso   1.00
H141   H     0.54400   0.37337   0.47202   0.00000  Uiso   1.00
H142   H     0.47246   0.38688   0.46166   0.00000  Uiso   1.00
H143   H     0.58258   0.30906   0.49655   0.00000  Uiso   1.00
O144   O     0.58074   0.30491   0.43257   0.00000  Uiso   1.00
O145   O     0.65402   0.28994   0.52042   0.00000  Uiso   1.00
C146   C     0.45790   0.33100   0.41507   0.00000  Uiso   1.00
C147   C     0.47359   0.29608   0.39156   0.00000  Uiso   1.00
C148   C     0.51440   0.28853   0.39734   0.00000  Uiso   1.00
C149   C     0.54009   0.31477   0.42723   0.00000  Uiso   1.00
C150   C     0.52460   0.35114   0.44980   0.00000  Uiso   1.00
C151   C     0.48381   0.35915   0.44369   0.00000  Uiso   1.00
C152   C     0.59922   0.30336   0.47209   0.00000  Uiso   1.00
H153   H     0.69867   0.23428   0.47413   0.00000  Uiso   1.00
H154   H     0.69014   0.29006   0.59233   0.00000  Uiso   1.00
H155   H     0.75718   0.19116   0.50013   0.00000  Uiso   1.00
H156   H     0.65406   0.28550   0.45641   0.00000  Uiso   1.00
H157   H     0.74787   0.24503   0.61835   0.00000  Uiso   1.00
C158   C     0.76452   0.09191   0.74308   0.00000  Uiso   1.00
C159   C     0.75260   0.04447   0.75000   0.00000  Uiso   1.00
C160   C     0.73341   1.03509   0.78239   0.00000  Uiso   1.00
C161   C     0.72559   0.07310   0.80820   0.00000  Uiso   1.00
C162   C     0.73580   0.12057   0.80027   0.00000  Uiso   1.00
C163   C     0.75571   0.12995   0.76832   0.00000  Uiso   1.00
C164   C     0.72557   1.03139   0.86669   0.00000  Uiso   1.00
H165   H     0.65740   0.01072   0.02643   0.00000  Uiso   1.00
H166   H     0.68280   0.03835   0.96783   0.00000  Uiso   1.00
H167   H     0.74225   0.90507   0.95752   0.00000  Uiso   1.00
H168   H     0.71772   0.87757   0.01647   0.00000  Uiso   1.00
H169   H     0.68083   0.03126   0.90227   0.00000  Uiso   1.00
O170   O     0.72987   0.98595   0.92362   0.00000  Uiso   1.00
O171   O     0.70675   0.06464   0.84115   0.00000  Uiso   1.00
C172   C     0.68511   0.94173   0.02601   0.00000  Uiso   1.00
C173   C     0.67558   0.98712   0.01144   0.00000  Uiso   1.00
C174   C     0.68978   1.00268   0.97746   0.00000  Uiso   1.00
C175   C     0.71340   0.97264   0.95713   0.00000  Uiso   1.00
C176   C     0.72352   0.92812   0.97231   0.00000  Uiso   1.00
C177   C     0.70950   0.91263   0.00611   0.00000  Uiso   1.00
C178   C     0.70956   1.01805   0.89803   0.00000  Uiso   1.00
H179   H     0.72466   0.99827   0.78742   0.00000  Uiso   1.00
H180   H     0.72911   0.15018   0.81946   0.00000  Uiso   1.00
H181   H     0.75864   1.01458   0.73072   0.00000  Uiso   1.00
H182   H     0.75395   1.01708   0.86203   0.00000  Uiso   1.00
H183   H     0.76416   0.16691   0.76334   0.00000  Uiso   1.00
C184   C     0.78939   0.04928   0.53801   0.00000  Uiso   1.00
C185   C     0.74965   0.05031   0.51992   0.00000  Uiso   1.00
C186   C     0.73839   0.03231   0.48091   0.00000  Uiso   1.00
C187   C     0.76654   0.01372   0.45914   0.00000  Uiso   1.00
C188   C     0.80625   0.01134   0.47761   0.00000  Uiso   1.00
C189   C     0.81753   0.02922   0.51673   0.00000  Uiso   1.00
C190   C     0.77805   0.00309   0.39193   0.00000  Uiso   1.00
H191   H     0.73590   0.89969   0.21819   0.00000  Uiso   1.00
H192   H     0.78202   0.91819   0.28004   0.00000  Uiso   1.00
H193   H     0.74101   0.06264   0.28474   0.00000  Uiso   1.00
H194   H     0.69461   1.04472   0.22307   0.00000  Uiso   1.00
H195   H     0.73477   0.97256   0.34722   0.00000  Uiso   1.00
O196   O     0.78689   1.00009   0.32420   0.00000  Uiso   1.00
O197   O     0.75309   0.99527   0.42039   0.00000  Uiso   1.00
C198   C     0.71168   0.97075   0.21601   0.00000  Uiso   1.00
C199   C     0.73741   0.93574   0.23188   0.00000  Uiso   1.00
C200   C     0.76368   0.94612   0.26704   0.00000  Uiso   1.00
C201   C     0.76457   0.99160   0.28659   0.00000  Uiso   1.00
C202   C     0.74051   1.02744   0.26973   0.00000  Uiso   1.00
C203   C     0.71416   1.01710   0.23467   0.00000  Uiso   1.00
C204   C     0.76440   0.98992   0.35425   0.00000  Uiso   1.00
H205   H     0.70762   0.03345   0.46725   0.00000  Uiso   1.00
H206   H     0.82833   0.99515   0.46215   0.00000  Uiso   1.00
H207   H     0.72739   0.06536   0.53582   0.00000  Uiso   1.00
H208   H     0.80695   0.02198   0.39930   0.00000  Uiso   1.00
H209   H     0.84829   0.02743   0.53031   0.00000  Uiso   1.00
C210   C     0.31132   0.47364   0.48199   0.00000  Uiso   1.00
C211   C     0.33377   0.51085   0.50537   0.00000  Uiso   1.00
C212   C     0.31998   0.53124   0.53870   0.00000  Uiso   1.00
C213   C     0.28351   0.51467   0.54905   0.00000  Uiso   1.00
C214   C     0.26032   0.47945   0.52455   0.00000  Uiso   1.00
C215   C     0.27423   0.45864   0.49168   0.00000  Uiso   1.00
C216   C     0.29518   0.54029   0.61746   0.00000  Uiso   1.00
H217   H     0.20657   0.52251   0.75712   0.00000  Uiso   1.00
H218   H     0.24290   0.50791   0.70167   0.00000  Uiso   1.00
H219   H     0.32896   0.62152   0.74826   0.00000  Uiso   1.00
H220   H     0.29298   0.63595   0.80462   0.00000  Uiso   1.00
H221   H     0.25066   0.56436   0.64820   0.00000  Uiso   1.00
O222   O     0.30726   0.56007   0.68680   0.00000  Uiso   1.00
O223   O     0.26830   0.53397   0.58200   0.00000  Uiso   1.00
C224   C     0.24677   0.58077   0.78489   0.00000  Uiso   1.00
C225   C     0.23342   0.54416   0.75578   0.00000  Uiso   1.00
C226   C     0.25381   0.53623   0.72380   0.00000  Uiso   1.00
C227   C     0.28759   0.56536   0.71993   0.00000  Uiso   1.00
C228   C     0.30236   0.59976   0.75025   0.00000  Uiso   1.00
C229   C     0.28192   0.60780   0.78235   0.00000  Uiso   1.00
C230   C     0.28180   0.55570   0.65028   0.00000  Uiso   1.00
H231   H     0.33761   0.55992   0.55629   0.00000  Uiso   1.00
H232   H     0.23170   0.46732   0.53152   0.00000  Uiso   1.00
H233   H     0.36239   0.52326   0.49856   0.00000  Uiso   1.00
H234   H     0.32600   0.53048   0.61927   0.00000  Uiso   1.00
H235   H     0.25603   0.43048   0.47393   0.00000  Uiso   1.00
C236   C     0.19022   0.53476   0.98018   0.00000  Uiso   1.00
C237   C     0.16488   0.51346   1.00395   0.00000  Uiso   1.00
C238   C     0.18030   0.48770   0.03647   0.00000  Uiso   1.00
C239   C     0.22173   0.48435   0.04687   0.00000  Uiso   1.00
C240   C     0.24680   0.50335   0.02183   0.00000  Uiso   1.00
C241   C     0.23128   0.52839   0.98872   0.00000  Uiso   1.00
C242   C     0.21974   0.46485   0.11439   0.00000  Uiso   1.00
H243   H     0.32921   0.51501   0.26587   0.00000  Uiso   1.00
H244   H     0.28345   0.51351   0.20328   0.00000  Uiso   1.00
H245   H     0.21188   0.40023   0.24345   0.00000  Uiso   1.00
H246   H     0.25826   0.40055   0.30620   0.00000  Uiso   1.00
H247   H     0.26742   0.43631   0.15063   0.00000  Uiso   1.00
O248   O     0.21889   0.45393   0.18259   0.00000  Uiso   1.00
O249   O     0.23930   0.46205   0.08098   0.00000  Uiso   1.00
C250   C     0.29736   0.45767   0.29070   0.00000  Uiso   1.00
C251   C     0.30363   0.48994   0.26151   0.00000  Uiso   1.00
C252   C     0.27779   0.48884   0.22566   0.00000  Uiso   1.00
C253   C     0.24506   0.45562   0.21848   0.00000  Uiso   1.00
C254   C     0.23747   0.42530   0.24840   0.00000  Uiso   1.00
C255   C     0.26380   0.42570   0.28410   0.00000  Uiso   1.00
C256   C     0.23777   0.45023   0.14887   0.00000  Uiso   1.00
H257   H     0.15966   0.47077   0.05331   0.00000  Uiso   1.00
H258   H     0.27865   0.50006   0.02883   0.00000  Uiso   1.00
H259   H     0.13302   0.51712   0.99759   0.00000  Uiso   1.00
H260   H     0.19126   0.48131   0.11389   0.00000  Uiso   1.00
H261   H     0.25149   0.54445   0.97085   0.00000  Uiso   1.00
C262   C     0.24952   0.24783   0.41269   0.00000  Uiso   1.00
C263   C     0.21057   0.24892   0.39220   0.00000  Uiso   1.00
C264   C     0.17919   0.22396   0.40565   0.00000  Uiso   1.00
C265   C     0.18633   0.19657   0.43965   0.00000  Uiso   1.00
C266   C     0.22541   0.19450   0.45917   0.00000  Uiso   1.00
C267   C     0.25678   0.21946   0.44575   0.00000  Uiso   1.00
C268   C     0.11817   0.16665   0.43494   0.00000  Uiso   1.00
H269   H     0.92919   0.09337   0.45667   0.00000  Uiso   1.00
H270   H    -0.01535   0.09518   0.41815   0.00000  Uiso   1.00
H271   H     0.03902   0.21747   0.49089   0.00000  Uiso   1.00
H272   H     0.98411   0.21578   0.52933   0.00000  Uiso   1.00
H273   H     0.09090   0.16265   0.48547   0.00000  Uiso   1.00
O274   O     0.04851   0.15313   0.43092   0.00000  Uiso   1.00
O275   O     0.15589   0.17518   0.45768   0.00000  Uiso   1.00
C276   C     0.95264   0.15426   0.49608   0.00000  Uiso   1.00
C277   C     0.95292   0.12077   0.46418   0.00000  Uiso   1.00
C278   C    -0.01551   0.12161   0.44233   0.00000  Uiso   1.00
C279   C     0.01664   0.15492   0.45261   0.00000  Uiso   1.00
C280   C     0.01533   0.19008   0.48328   0.00000  Uiso   1.00
C281   C     0.98362   0.18962   0.50482   0.00000  Uiso   1.00
C282   C     0.08654   0.16105   0.45324   0.00000  Uiso   1.00
H283   H     0.14943   0.22846   0.39046   0.00000  Uiso   1.00
H284   H     0.23133   0.17481   0.48590   0.00000  Uiso   1.00
H285   H     0.20397   0.27116   0.36699   0.00000  Uiso   1.00
H286   H     0.11410   0.16392   0.40280   0.00000  Uiso   1.00
H287   H     0.28642   0.21838   0.46237   0.00000  Uiso   1.00
C288   C     0.94848   0.04066   0.66992   0.00000  Uiso   1.00
C289   C     0.94145   1.00639   0.69738   0.00000  Uiso   1.00
C290   C     0.97128   0.97577   0.71188   0.00000  Uiso   1.00
C291   C     1.00861   0.97890   0.69910   0.00000  Uiso   1.00
C292   C     1.01643   0.01475   0.67353   0.00000  Uiso   1.00
C293   C     0.98651   0.04513   0.65867   0.00000  Uiso   1.00
C294   C     1.02514   0.89811   0.70348   0.00000  Uiso   1.00
H295   H     0.13677   0.73200   0.76964   0.00000  Uiso   1.00
H296   H     0.10493   0.78502   0.71949   0.00000  Uiso   1.00
H297   H     0.99654   0.77486   0.76942   0.00000  Uiso   1.00
H298   H     0.02769   0.72226   0.81982   0.00000  Uiso   1.00
H299   H     0.07297   0.87249   0.74150   0.00000  Uiso   1.00
O300   O     1.03065   0.81544   0.71435   0.00000  Uiso   1.00
O301   O     1.03807   0.94658   0.71140   0.00000  Uiso   1.00
C302   C     0.08485   0.72349   0.79897   0.00000  Uiso   1.00
C303   C     0.10613   0.74096   0.76992   0.00000  Uiso   1.00
C304   C     0.08823   0.77129   0.74149   0.00000  Uiso   1.00
C305   C     0.04885   0.78422   0.74170   0.00000  Uiso   1.00
C306   C     1.02714   0.76548   0.76953   0.00000  Uiso   1.00
C307   C     0.04504   0.73573   0.79824   0.00000  Uiso   1.00
C308   C     0.04587   0.86316   0.72086   0.00000  Uiso   1.00
H309   H     0.96516   0.94898   0.73250   0.00000  Uiso   1.00
H310   H     0.04532   0.01793   0.66406   0.00000  Uiso   1.00
H311   H     0.91257   1.00224   0.70675   0.00000  Uiso   1.00
H312   H     0.99745   0.88835   0.68388   0.00000  Uiso   1.00
H313   H     0.99303   0.07175   0.63805   0.00000  Uiso   1.00
C314   C     0.08279   0.51558   0.83143   0.00000  Uiso   1.00
C315   C     0.05079   0.51526   0.85301   0.00000  Uiso   1.00
C316   C     0.01689   0.48564   0.84033   0.00000  Uiso   1.00
C317   C     0.01472   0.45552   0.80623   0.00000  Uiso   1.00
C318   C     0.04689   0.45475   0.78498   0.00000  Uiso   1.00
C319   C     0.08088   0.48465   0.79751   0.00000  Uiso   1.00
C320   C     0.98232   0.37986   0.80292   0.00000  Uiso   1.00
H321   H     0.97852   0.18846   0.69181   0.00000  Uiso   1.00
H322   H     1.00319   0.23775   0.75254   0.00000  Uiso   1.00
H323   H     0.88524   0.28628   0.75665   0.00000  Uiso   1.00
H324   H     0.86008   0.23694   0.69590   0.00000  Uiso   1.00
H325   H    -0.06449   0.35752   0.75854   0.00000  Uiso   1.00
O326   O     0.96227   0.29760   0.79022   0.00000  Uiso   1.00
O327   O    -0.02009   0.42794   0.79246   0.00000  Uiso   1.00
C328   C     0.91757   0.20959   0.68901   0.00000  Uiso   1.00
C329   C     0.95780   0.20932   0.70586   0.00000  Uiso   1.00
C330   C     0.97189   0.23721   0.74040   0.00000  Uiso   1.00
C331   C     0.94626   0.26635   0.75812   0.00000  Uiso   1.00
C332   C     0.90557   0.26484   0.74257   0.00000  Uiso   1.00
C333   C     0.89133   0.23662   0.70812   0.00000  Uiso   1.00
C334   C     0.95728   0.34643   0.78278   0.00000  Uiso   1.00
H335   H     0.99214   0.48640   0.85683   0.00000  Uiso   1.00
H336   H     0.04511   0.43171   0.75834   0.00000  Uiso   1.00
H337   H     0.05174   0.53848   0.87944   0.00000  Uiso   1.00
H338   H     1.00562   0.36894   0.82584   0.00000  Uiso   1.00
H339   H     0.10506   0.48445   0.78024   0.00000  Uiso   1.00
C340   C     0.73160   0.73021   0.09925   0.00000  Uiso   1.00
C341   C     0.72157   0.70042   0.06464   0.00000  Uiso   1.00
C342   C     0.75071   0.67355   0.05001   0.00000  Uiso   1.00
C343   C     0.79004   0.67664   0.06957   0.00000  Uiso   1.00
C344   C     0.79905   0.70297   0.10608   0.00000  Uiso   1.00
C345   C     0.77014   0.72969   0.12064   0.00000  Uiso   1.00
C346   C     0.85285   0.68647   0.04992   0.00000  Uiso   1.00
H347   H     0.04601   0.73015   0.01896   0.00000  Uiso   1.00
H348   H     0.98897   0.74585   0.05307   0.00000  Uiso   1.00
H349   H     0.92007   0.63247   0.98016   0.00000  Uiso   1.00
H350   H    -0.02278   0.61523   0.94801   0.00000  Uiso   1.00
H351   H     0.88838   0.63207   0.03262   0.00000  Uiso   1.00
O352   O     0.91822   0.70371   1.03884   0.00000  Uiso   1.00
O353   O     0.82000   0.65491   0.05188   0.00000  Uiso   1.00
C354   C     0.01602   0.67138   0.98108   0.00000  Uiso   1.00
C355   C     0.01883   0.70814   0.01089   0.00000  Uiso   1.00
C356   C     0.98639   0.71704   0.03036   0.00000  Uiso   1.00
C357   C     0.95053   0.68975   1.02040   0.00000  Uiso   1.00
C358   C     0.94762   0.65299   0.99020   0.00000  Uiso   1.00
C359   C    -0.01971   0.64354   0.97122   0.00000  Uiso   1.00
C360   C     0.88620   0.67040   0.03917   0.00000  Uiso   1.00
H361   H     0.74321   0.65258   1.02227   0.00000  Uiso   1.00
H362   H     0.82898   0.70455   0.12230   0.00000  Uiso   1.00
H363   H     0.69195   0.70006   1.04776   0.00000  Uiso   1.00
H364   H     0.85154   0.72500   1.05675   0.00000  Uiso   1.00
H365   H     0.77852   0.75184   0.14768   0.00000  Uiso   1.00
C366   C     0.59353   0.81456   0.22524   0.00000  Uiso   1.00
C367   C     0.56131   0.78112   0.21518   0.00000  Uiso   1.00
C368   C     0.55188   0.74839   0.24263   0.00000  Uiso   1.00
C369   C     0.57489   0.74842   0.28034   0.00000  Uiso   1.00
C370   C     0.60558   0.78362   0.29120   0.00000  Uiso   1.00
C371   C     0.61536   0.81605   0.26355   0.00000  Uiso   1.00
C372   C     0.57338   0.66622   0.29350   0.00000  Uiso   1.00
H373   H     0.52281   0.51102   0.40295   0.00000  Uiso   1.00
H374   H     0.56540   0.56846   0.37403   0.00000  Uiso   1.00
H375   H     0.51614   0.51196   0.25711   0.00000  Uiso   1.00
H376   H     0.47254   0.45521   0.28554   0.00000  Uiso   1.00
H377   H     0.54026   0.63598   0.33357   0.00000  Uiso   1.00
O378   O     0.56269   0.58160   0.29571   0.00000  Uiso   1.00
O379   O     0.56760   0.71354   0.30705   0.00000  Uiso   1.00
C380   C     0.49398   0.47914   0.34641   0.00000  Uiso   1.00
C381   C     0.52164   0.51014   0.37109   0.00000  Uiso   1.00
C382   C     0.54568   0.54319   0.35469   0.00000  Uiso   1.00
C383   C     0.54254   0.54544   0.31335   0.00000  Uiso   1.00
C384   C     0.51825   0.51103   0.28897   0.00000  Uiso   1.00
C385   C     0.49385   0.47827   0.30528   0.00000  Uiso   1.00
C386   C     0.55802   0.62887   0.31022   0.00000  Uiso   1.00
H387   H     0.52756   0.72194   0.23419   0.00000  Uiso   1.00
H388   H     0.62327   0.78403   0.32032   0.00000  Uiso   1.00
H389   H     0.54485   0.77864   0.18541   0.00000  Uiso   1.00
H390   H     0.59009   0.65939   0.26922   0.00000  Uiso   1.00
H391   H     0.64123   0.84039   0.27134   0.00000  Uiso   1.00
loop_
_geom_bond_atom_site_label_1
_geom_bond_atom_site_label_2
_geom_bond_distance
_geom_bond_site_symmetry_2
_ccdc_geom_bond_type
Ce0    O9      2.250   .     S
Ce0    O10     2.282   .     S
Ce0    O11     2.278   .     S
Ce0    O12     2.316   .     S
Ce0    O14     2.309   .     S
Ce0    O15     2.178   .     S
Ce0    O19     2.322   .     S
Ce1    O8      2.336   .     S
Ce1    O9      2.304   .     S
Ce1    O13     2.303   .     S
Ce1    O15     2.244   .     S
Ce1    O16     2.265   .     S
Ce1    O17     2.283   .     S
Ce1    O18     2.330   .     S
C2     O8      1.210   .     D
C2     O9      1.369   .     S
C2     C94     1.474   .     S
C3     O10     1.280   .     A
C3     O11     1.280   .     A
C3     C224    1.476   .     S
C4     O12     1.304   .     A
C4     O13     1.301   .     A
C4     C302    1.478   .     S
C5     O14     1.227   .     D
C5     O15     1.387   .     S
C5     C314    1.471   .     S
C6     O16     1.275   .     A
C6     O17     1.281   .     A
C6     C354    1.475   .     S
C7     O18     1.306   .     A
C7     O19     1.302   .     A
C7     C236    1.476   .     S
Ce20   O29     2.249   .     S
Ce20   O30     2.265   .     S
Ce20   O31     2.286   .     S
Ce20   O32     2.319   .     S
Ce20   O34     2.248   .     S
Ce20   O35     2.245   .     S
Ce20   O39     2.371   .     S
Ce21   O28     2.290   .     S
Ce21   O29     2.277   .     S
Ce21   O33     2.282   .     S
Ce21   O35     2.287   .     S
Ce21   O36     2.258   .     S
Ce21   O37     2.290   .     S
Ce21   O38     2.258   .     S
C22    O28     1.226   .     D
C22    O29     1.391   .     S
C22    C80     1.473   .     S
C23    O30     1.276   .     A
C23    O31     1.286   .     A
C23    C120    1.476   .     S
C24    O32     1.288   .     A
C24    O33     1.283   .     A
C24    C172    1.485   .     S
C25    O34     1.229   .     D
C25    O35     1.411   .     S
C25    C198    1.474   .     S
C26    O36     1.275   .     A
C26    O37     1.281   .     A
C26    C340    1.472   .     S
C27    O38     1.289   .     A
C27    O39     1.307   .     A
C27    C366    1.466   .     S
Ce40   O49     2.237   .     S
Ce40   O50     2.274   .     S
Ce40   O51     2.272   .     S
Ce40   O52     2.333   .     S
Ce40   O54     2.330   .     S
Ce40   O55     2.266   .     S
Ce40   O59     2.332   .     S
Ce41   O48     2.340   .     S
Ce41   O49     2.264   .     S
Ce41   O53     2.322   .     S
Ce41   O55     2.250   .     S
Ce41   O56     2.277   .     S
Ce41   O57     2.275   .     S
Ce41   O58     2.329   .     S
C42    O48     1.205   .     D
C42    O49     1.360   .     S
C42    C184    1.472   .     S
C43    O50     1.277   .     A
C43    O51     1.278   .     A
C43    C276    1.473   .     S
C44    O52     1.306   .     A
C44    O53     1.303   .     A
C44    C288    1.478   .     S
C45    O54     1.206   .     D
C45    O55     1.365   .     S
C45    C328    1.471   .     S
C46    O56     1.277   .     A
C46    O57     1.278   .     A
C46    C158    1.475   .     S
C47    O58     1.307   .     A
C47    O59     1.306   .     A
C47    C132    1.477   .     S
Ce60   O69     2.249   .     S
Ce60   O70     2.266   .     S
Ce60   O71     2.286   .     S
Ce60   O72     2.334   .     S
Ce60   O74     2.258   .     S
Ce60   O75     2.189   .     S
Ce60   O79     2.371   .     S
Ce61   O68     2.328   .     S
Ce61   O69     2.332   .     S
Ce61   O73     2.278   .     S
Ce61   O75     2.296   .     S
Ce61   O76     2.270   .     S
Ce61   O77     2.279   .     S
Ce61   O78     2.306   .     S
C62    O68     1.212   .     D
C62    O69     1.373   .     S
C62    C146    1.476   .     S
C63    O70     1.277   .     A
C63    O71     1.286   .     A
C63    C380    1.476   .     S
C64    O72     1.298   .     A
C64    O73     1.290   .     A
C64    C210    1.480   .     S
C65    O74     1.230   .     D
C65    O75     1.408   .     S
C65    C250    1.474   .     S
C66    O76     1.277   .     A
C66    O77     1.280   .     A
C66    C262    1.477   .     S
C67    O78     1.300   .     A
C67    O79     1.307   .     A
C67    C106    1.480   .     S
C80    C81     1.405   .     A
C80    C85     1.404   .     A
C81    C82     1.395   .     A
C81    H103    1.083   .     S
C82    C83     1.407   .     A
C82    H101    1.083   .     S
C83    C84     1.401   1_554 A
C83    O93     1.404   1_554 S
C84    H102    1.082   .     S
C84    C83     1.401   1_556 A
C84    C85     1.400   1_556 A
C85    C84     1.400   1_554 A
C85    H105    1.083   1_554 S
C86    H104    1.089   .     S
C86    O93     1.406   1_554 S
C86    C100    1.333   1_554 D
H87    C95     1.083   .     S
H88    C96     1.077   .     S
H89    C98     1.083   .     S
H90    C99     1.083   1_554 S
H91    C100    1.082   .     S
O92    C97     1.411   1_554 S
O92    C100    1.407   1_554 S
O93    C83     1.404   1_556 S
O93    C86     1.406   1_556 S
C94    C95     1.401   .     A
C94    C99     1.403   .     A
C95    C96     1.398   .     A
C96    C97     1.414   .     A
C97    O92     1.411   1_556 S
C97    C98     1.403   1_556 A
C98    C97     1.403   1_554 A
C98    C99     1.399   1_554 A
C99    H90     1.083   1_556 S
C99    C98     1.399   1_556 A
C100   C86     1.333   1_556 D
C100   O92     1.407   1_556 S
H105   C85     1.083   1_556 S
C106   C107    1.406   .     A
C106   C111    1.406   .     A
C107   C108    1.404   .     A
C107   H129    1.083   .     S
C108   C109    1.403   .     A
C108   H127    1.083   .     S
C109   C110    1.404   .     A
C109   O119    1.406   .     S
C110   C111    1.392   .     A
C110   H128    1.082   .     S
C111   H131    1.083   .     S
C112   O119    1.409   .     S
C112   C126    1.333   .     D
C112   H130    1.088   .     S
H113   C121    1.083   .     S
H114   C122    1.083   .     S
H115   C124    1.083   .     S
H116   C125    1.083   .     S
H117   C126    1.088   .     S
O118   C123    1.404   .     S
O118   C126    1.408   .     S
C120   C121    1.407   .     A
C120   C125    1.404   .     A
C121   C122    1.397   1_565 A
C122   C123    1.405   .     A
C122   C121    1.397   1_545 A
C123   C124    1.401   .     A
C124   C125    1.399   1_545 A
C125   C124    1.399   1_565 A
C132   C133    1.404   .     A
C132   C137    1.402   .     A
C133   C134    1.405   .     A
C133   H155    1.083   .     S
C134   C135    1.416   .     A
C134   H153    1.079   .     S
C135   C136    1.398   .     A
C135   O145    1.410   .     S
C136   C137    1.394   .     A
C136   H154    1.083   .     S
C137   H157    1.083   .     S
C138   O145    1.404   .     S
C138   C152    1.336   .     D
C138   H156    1.084   .     S
H139   C147    1.083   .     S
H140   C148    1.083   .     S
H141   C150    1.083   .     S
H142   C151    1.083   .     S
H143   C152    1.088   .     S
O144   C149    1.407   .     S
O144   C152    1.405   .     S
C146   C147    1.405   .     A
C146   C151    1.403   .     A
C147   C148    1.399   .     A
C148   C149    1.400   .     A
C149   C150    1.411   .     A
C150   C151    1.401   .     A
C158   C159    1.405   .     A
C158   C163    1.405   .     A
C159   C160    1.397   1_545 A
C159   H181    1.083   1_545 S
C160   H179    1.083   .     S
C160   C159    1.397   1_565 A
C160   C161    1.406   1_565 A
C161   C162    1.399   .     A
C161   O171    1.402   .     S
C161   C160    1.406   1_545 A
C162   C163    1.399   .     A
C162   H180    1.083   .     S
C163   H183    1.083   .     S
C164   C178    1.334   .     D
C164   H182    1.090   .     S
C164   O171    1.404   1_565 S
H165   C173    1.083   1_545 S
H166   C174    1.081   1_545 S
H167   C176    1.083   .     S
H168   C177    1.083   .     S
H169   C178    1.085   1_545 S
O170   C175    1.407   .     S
O170   C178    1.403   .     S
O171   C164    1.404   1_545 S
C172   C173    1.407   .     A
C172   C177    1.407   .     A
C173   H165    1.083   1_565 S
C173   C174    1.403   1_554 A
C174   C175    1.413   .     A
C174   H166    1.081   1_565 S
C174   C173    1.403   1_556 A
C175   C176    1.397   .     A
C176   C177    1.394   1_556 A
C177   C176    1.394   1_554 A
C178   H169    1.085   1_565 S
H181   C159    1.083   1_565 S
C184   C185    1.402   .     A
C184   C189    1.405   .     A
C185   C186    1.397   .     A
C185   H207    1.083   .     S
C186   C187    1.400   .     A
C186   H205    1.083   .     S
C187   C188    1.408   .     A
C187   O197    1.403   1_545 S
C188   C189    1.399   .     A
C188   H206    1.083   1_545 S
C189   H209    1.083   .     S
C190   H208    1.087   .     S
C190   O197    1.404   1_545 S
C190   C204    1.333   1_545 D
H191   C199    1.083   .     S
H192   C200    1.083   .     S
H193   C202    1.083   1_545 S
H194   C203    1.083   .     S
H195   C204    1.090   .     S
O196   C201    1.397   .     S
O196   C204    1.403   .     S
O197   C187    1.403   1_565 S
O197   C190    1.404   1_565 S
C198   C199    1.405   .     A
C198   C203    1.406   .     A
C199   C200    1.398   .     A
C200   C201    1.401   .     A
C201   C202    1.401   .     A
C202   C203    1.397   .     A
C202   H193    1.083   1_565 S
C204   C190    1.333   1_565 D
H206   C188    1.083   1_565 S
C210   C211    1.406   .     A
C210   C215    1.406   .     A
C211   C212    1.402   .     A
C211   H233    1.083   .     S
C212   C213    1.409   .     A
C212   H231    1.082   .     S
C213   C214    1.398   .     A
C213   O223    1.404   .     S
C214   C215    1.396   .     A
C214   H232    1.083   .     S
C215   H235    1.083   .     S
C216   O223    1.405   .     S
C216   C230    1.333   .     D
C216   H234    1.087   .     S
H217   C225    1.083   .     S
H218   C226    1.082   .     S
H219   C228    1.082   .     S
H220   C229    1.083   .     S
H221   C230    1.089   .     S
O222   C227    1.406   .     S
O222   C230    1.406   .     S
C224   C225    1.405   .     A
C224   C229    1.405   .     A
C225   C226    1.395   .     A
C226   C227    1.407   .     A
C227   C228    1.401   .     A
C228   C229    1.400   .     A
C236   C237    1.404   .     A
C236   C241    1.404   .     A
C237   H259    1.083   .     S
C237   C238    1.395   1_556 A
C238   C239    1.409   .     A
C238   H257    1.081   .     S
C238   C237    1.395   1_554 A
C239   C240    1.402   .     A
C239   O249    1.408   .     S
C240   H258    1.083   .     S
C240   C241    1.400   1_554 A
C241   H261    1.083   .     S
C241   C240    1.400   1_556 A
C242   O249    1.407   .     S
C242   C256    1.332   .     D
C242   H260    1.085   .     S
H243   C251    1.083   .     S
H244   C252    1.083   .     S
H245   C254    1.083   .     S
H246   C255    1.083   .     S
H247   C256    1.089   .     S
O248   C253    1.402   .     S
O248   C256    1.404   .     S
C250   C251    1.405   .     A
C250   C255    1.405   .     A
C251   C252    1.395   .     A
C252   C253    1.405   .     A
C253   C254    1.400   .     A
C254   C255    1.400   .     A
C262   C263    1.405   .     A
C262   C267    1.403   .     A
C263   C264    1.398   .     A
C263   H285    1.083   .     S
C264   C265    1.413   .     A
C264   H283    1.081   .     S
C265   C266    1.400   .     A
C265   O275    1.409   .     S
C266   C267    1.397   .     A
C266   H284    1.082   .     S
C267   H287    1.083   .     S
C268   O275    1.404   .     S
C268   C282    1.333   .     D
C268   H286    1.086   .     S
H269   C277    1.083   .     S
H270   C278    1.082   .     S
H271   C280    1.082   .     S
H272   C281    1.083   .     S
H273   C282    1.089   .     S
O274   C279    1.405   .     S
O274   C282    1.405   .     S
C276   C277    1.404   .     A
C276   C281    1.403   .     A
C277   C278    1.399   1_655 A
C278   C279    1.399   .     A
C278   C277    1.399   1_455 A
C279   C280    1.409   .     A
C280   C281    1.396   1_455 A
C281   C280    1.396   1_655 A
C288   C293    1.408   .     A
C288   C289    1.405   1_545 A
C289   C290    1.396   .     A
C289   H311    1.083   .     S
C289   C288    1.405   1_565 A
C290   C291    1.406   .     A
C290   H309    1.083   .     S
C291   O301    1.401   .     S
C291   C292    1.397   1_565 A
C292   C293    1.398   .     A
C292   C291    1.397   1_545 A
C292   H310    1.083   1_655 S
C293   H313    1.083   .     S
C294   O301    1.403   .     S
C294   H312    1.089   .     S
C294   C308    1.330   1_655 D
H295   C303    1.083   .     S
H296   C304    1.083   .     S
H297   C306    1.083   .     S
H298   C307    1.083   .     S
H299   C308    1.089   .     S
O300   C305    1.395   1_655 S
O300   C308    1.401   1_655 S
C302   C303    1.407   .     A
C302   C307    1.407   .     A
C303   C304    1.399   .     A
C304   C305    1.402   .     A
C305   O300    1.395   1_455 S
C305   C306    1.396   1_455 A
C306   C305    1.396   1_655 A
C306   C307    1.395   1_655 A
C307   C306    1.395   1_455 A
C308   C294    1.330   1_455 D
C308   O300    1.401   1_455 S
H310   C292    1.083   1_455 S
C314   C315    1.405   .     A
C314   C319    1.405   .     A
C315   C316    1.395   .     A
C315   H337    1.083   .     S
C316   C317    1.397   .     A
C316   H335    1.083   1_455 S
C317   C318    1.403   .     A
C317   O327    1.395   .     S
C318   C319    1.400   .     A
C318   H336    1.083   .     S
C319   H339    1.083   .     S
C320   C334    1.331   .     D
C320   H338    1.089   .     S
C320   O327    1.400   1_655 S
H321   C329    1.083   .     S
H322   C330    1.083   .     S
H323   C332    1.083   .     S
H324   C333    1.083   .     S
H325   C334    1.089   1_455 S
O326   C331    1.399   .     S
O326   C334    1.403   .     S
O327   C320    1.400   1_455 S
C328   C329    1.404   .     A
C328   C333    1.405   .     A
C329   C330    1.396   .     A
C330   C331    1.398   .     A
C331   C332    1.405   .     A
C332   C333    1.399   .     A
C334   H325    1.089   1_655 S
H335   C316    1.083   1_655 S
C340   C341    1.405   .     A
C340   C345    1.404   .     A
C341   C342    1.402   .     A
C341   H363    1.083   1_554 S
C342   C343    1.402   .     A
C342   H361    1.083   1_554 S
C343   C344    1.406   .     A
C343   O353    1.404   .     S
C344   C345    1.392   .     A
C344   H362    1.083   .     S
C345   H365    1.083   .     S
C346   O353    1.407   .     S
C346   C360    1.332   .     D
C346   H364    1.090   1_554 S
H347   C355    1.083   .     S
H348   C356    1.083   .     S
H349   C358    1.081   .     S
H350   C359    1.084   .     S
H351   C360    1.086   .     S
O352   C357    1.407   .     S
O352   C360    1.405   1_556 S
C354   C359    1.405   .     A
C354   C355    1.401   1_556 D
C355   C354    1.401   1_554 D
C355   C356    1.398   1_455 S
C356   C355    1.398   1_655 S
C356   C357    1.402   1_554 A
C357   C358    1.411   .     A
C357   C356    1.402   1_556 A
C358   C359    1.398   1_655 A
C359   C358    1.398   1_455 A
C360   O352    1.405   1_554 S
H361   C342    1.083   1_556 S
H363   C341    1.083   1_556 S
H364   C346    1.090   1_556 S
C366   C367    1.403   .     A
C366   C371    1.404   .     A
C367   C368    1.398   .     A
C367   H389    1.084   .     S
C368   C369    1.404   .     A
C368   H387    1.083   .     S
C369   C370    1.400   .     A
C369   O379    1.401   .     S
C370   C371    1.401   .     A
C370   H388    1.083   .     S
C371   H391    1.083   .     S
C372   O379    1.406   .     S
C372   C386    1.334   .     D
C372   H390    1.089   .     S
H373   C381    1.083   .     S
H374   C382    1.082   .     S
H375   C384    1.083   .     S
H376   C385    1.083   .     S
H377   C386    1.088   .     S
O378   C383    1.403   .     S
O378   C386    1.407   .     S
C380   C381    1.406   .     A
C380   C385    1.405   .     A
C381   C382    1.398   .     A
C382   C383    1.406   .     A
C383   C384    1.399   .     A
C384   C385    1.399   .     A
