data_lcy+N144+E28
_audit_creation_date              2025-01-21
_audit_creation_method            'Materials Studio'
_symmetry_space_group_name_H-M    'P1'
_symmetry_Int_Tables_number       1
_symmetry_cell_setting            triclinic
loop_
_symmetry_equiv_pos_as_xyz
  x,y,z
_cell_length_a                    32.8631
_cell_length_b                    32.9306
_cell_length_c                    32.8335
_cell_angle_alpha                 85.3942
_cell_angle_beta                  85.6264
_cell_angle_gamma                 83.4694
loop_
_atom_site_label
_atom_site_type_symbol
_atom_site_fract_x
_atom_site_fract_y
_atom_site_fract_z
_atom_site_U_iso_or_equiv
_atom_site_adp_type
_atom_site_occupancy
C0     C     0.21476   0.67641   0.92653   0.00000  Uiso   1.00
Er1    Er    0.11033   0.59916   0.86164   0.00000  Uiso   1.00
Er2    Er    0.15927   0.63924   0.87297   0.00000  Uiso   1.00
C3     C     0.08333   0.65355   0.93065   0.00000  Uiso   1.00
O4     O     0.18545   0.59044   0.91410   0.00000  Uiso   1.00
C5     C     0.09915   0.68382   0.81641   0.00000  Uiso   1.00
C6     C     0.18637   0.58779   0.80151   0.00000  Uiso   1.00
C7     C     0.08051   0.54248   0.82373   0.00000  Uiso   1.00
O8     O     0.19220   0.65900   0.95156   0.00000  Uiso   1.00
O9     O     0.20759   0.67808   0.88509   0.00000  Uiso   1.00
O10    O     0.19841   0.61499   0.82177   0.00000  Uiso   1.00
O11    O     0.15160   0.57461   0.81166   0.00000  Uiso   1.00
O12    O     0.13227   0.68719   0.83266   0.00000  Uiso   1.00
O13    O     0.08407   0.64943   0.81983   0.00000  Uiso   1.00
C14    C     0.16853   0.55788   0.92343   0.00000  Uiso   1.00
O15    O     0.13683   0.55178   0.90564   0.00000  Uiso   1.00
O16    O     0.11854   0.66571   0.92236   0.00000  Uiso   1.00
O17    O     0.07258   0.62535   0.91134   0.00000  Uiso   1.00
O18    O     0.11565   0.55449   0.81431   0.00000  Uiso   1.00
O19    O     0.06160   0.56171   0.85229   0.00000  Uiso   1.00
C20    C     0.73654   0.89330   0.19164   0.00000  Uiso   1.00
Er21   Er    0.61763   0.86731   0.10371   0.00000  Uiso   1.00
Er22   Er    0.66077   0.87066   0.15313   0.00000  Uiso   1.00
C23    C     0.67821   0.92867   0.07973   0.00000  Uiso   1.00
O24    O     0.62005   0.92106   0.17576   0.00000  Uiso   1.00
C25    C     0.69643   0.80920   0.09444   0.00000  Uiso   1.00
C26    C     0.60234   0.80794   0.17917   0.00000  Uiso   1.00
C27    C     0.55779   0.83556   0.07263   0.00000  Uiso   1.00
O28    O     0.75663   0.88546   0.15997   0.00000  Uiso   1.00
O29    O     0.70125   0.87441   0.20319   0.00000  Uiso   1.00
O30    O     0.62899   0.82689   0.19342   0.00000  Uiso   1.00
O31    O     0.59175   0.81782   0.14270   0.00000  Uiso   1.00
O32    O     0.70144   0.82120   0.12927   0.00000  Uiso   1.00
O33    O     0.66417   0.82261   0.07600   0.00000  Uiso   1.00
C34    C     0.58601   0.93315   0.16049   0.00000  Uiso   1.00
O35    O     0.57409   0.91377   0.13221   0.00000  Uiso   1.00
O36    O     0.69326   0.91434   0.11302   0.00000  Uiso   1.00
O37    O     0.64591   0.91615   0.06921   0.00000  Uiso   1.00
O38    O     0.57116   0.82402   0.10748   0.00000  Uiso   1.00
O39    O     0.57679   0.86378   0.05464   0.00000  Uiso   1.00
C40    C     0.92094   0.19594   0.68538   0.00000  Uiso   1.00
Er41   Er    0.83379   0.10744   0.60909   0.00000  Uiso   1.00
Er42   Er    0.85608   0.15141   0.64986   0.00000  Uiso   1.00
C43    C     0.90225   0.06475   0.65605   0.00000  Uiso   1.00
O44    O     0.89862   0.17095   0.60101   0.00000  Uiso   1.00
C45    C     0.79144   0.10642   0.69575   0.00000  Uiso   1.00
C46    C     0.78508   0.19112   0.60197   0.00000  Uiso   1.00
C47    C     0.83156   0.07504   0.53903   0.00000  Uiso   1.00
O48    O     0.94290   0.16930   0.66816   0.00000  Uiso   1.00
O49    O     0.87861   0.19425   0.68988   0.00000  Uiso   1.00
O50    O     0.80877   0.19929   0.62856   0.00000  Uiso   1.00
O51    O     0.78923   0.15590   0.58824   0.00000  Uiso   1.00
O52    O     0.81417   0.13410   0.69961   0.00000  Uiso   1.00
O53    O     0.79215   0.09047   0.66163   0.00000  Uiso   1.00
C54    C     0.90298   0.15420   0.56746   0.00000  Uiso   1.00
O55    O     0.87987   0.12696   0.56086   0.00000  Uiso   1.00
O56    O     0.90096   0.10001   0.67030   0.00000  Uiso   1.00
O57    O     0.87804   0.05921   0.62933   0.00000  Uiso   1.00
O58    O     0.85682   0.10014   0.54515   0.00000  Uiso   1.00
O59    O     0.80895   0.06676   0.57073   0.00000  Uiso   1.00
C60    C     0.27734   0.30751   0.43896   0.00000  Uiso   1.00
Er61   Er    0.39413   0.38617   0.35875   0.00000  Uiso   1.00
Er62   Er    0.34285   0.34804   0.38050   0.00000  Uiso   1.00
C63    C     0.41538   0.33135   0.43374   0.00000  Uiso   1.00
O64    O     0.31714   0.39492   0.42015   0.00000  Uiso   1.00
C65    C     0.40017   0.30317   0.32039   0.00000  Uiso   1.00
C66    C     0.32353   0.40289   0.30376   0.00000  Uiso   1.00
C67    C     0.43395   0.45163   0.35335   0.00000  Uiso   1.00
O68    O     0.29833   0.31669   0.46510   0.00000  Uiso   1.00
O69    O     0.29058   0.31163   0.39774   0.00000  Uiso   1.00
O70    O     0.30802   0.37723   0.32985   0.00000  Uiso   1.00
O71    O     0.35871   0.41348   0.30872   0.00000  Uiso   1.00
O72    O     0.36710   0.30007   0.34205   0.00000  Uiso   1.00
O73    O     0.41833   0.33520   0.32133   0.00000  Uiso   1.00
C74    C     0.33465   0.42680   0.42349   0.00000  Uiso   1.00
O75    O     0.36660   0.43340   0.40000   0.00000  Uiso   1.00
O76    O     0.38044   0.31923   0.42965   0.00000  Uiso   1.00
O77    O     0.42890   0.35891   0.40877   0.00000  Uiso   1.00
O78    O     0.40122   0.44838   0.37619   0.00000  Uiso   1.00
O79    O     0.44511   0.41965   0.33505   0.00000  Uiso   1.00
C80    C     0.45718   0.78769   0.02431   0.00000  Uiso   1.00
C81    C     0.46939   0.77406   0.06381   0.00000  Uiso   1.00
C82    C     0.50247   0.78925   0.07943   0.00000  Uiso   1.00
C83    C     0.52375   0.81835   0.05580   0.00000  Uiso   1.00
C84    C     0.51144   0.83126   1.01641   0.00000  Uiso   1.00
C85    C     0.47813   0.81546   1.00136   0.00000  Uiso   1.00
C86    C     0.42125   0.77187   1.00875   0.00000  Uiso   1.00
N87    N     0.41060   0.78154   0.96965   0.00000  Uiso   1.00
N88    N     0.37800   0.76739   0.95621   0.00000  Uiso   1.00
C89    C     0.35468   0.74310   0.98137   0.00000  Uiso   1.00
N90    N     0.36539   0.73349   0.02037   0.00000  Uiso   1.00
N91    N     0.39793   0.74754   0.03374   0.00000  Uiso   1.00
C92    C     0.31837   0.72714   0.96696   0.00000  Uiso   1.00
C93    C     0.29281   0.70521   0.99473   0.00000  Uiso   1.00
C94    C     0.25894   0.68933   0.98159   0.00000  Uiso   1.00
C95    C     0.24983   0.69479   0.94029   0.00000  Uiso   1.00
C96    C     0.27504   0.71702   0.91244   0.00000  Uiso   1.00
C97    C     0.30897   0.73316   0.92567   0.00000  Uiso   1.00
H98    H     0.45327   0.75180   0.08282   0.00000  Uiso   1.00
H99    H     0.51100   0.77862   0.11000   0.00000  Uiso   1.00
H100   H     0.52728   0.85373   0.99737   0.00000  Uiso   1.00
H101   H     0.46929   0.82644   0.97097   0.00000  Uiso   1.00
H102   H     0.29900   0.70006   0.02676   0.00000  Uiso   1.00
H103   H     0.24012   0.67233   1.00383   0.00000  Uiso   1.00
H104   H     0.26868   0.72179   0.88042   0.00000  Uiso   1.00
H105   H     0.32804   0.74993   0.90349   0.00000  Uiso   1.00
C106   C     0.45050   0.19975   0.25339   0.00000  Uiso   1.00
C107   C     0.40931   0.20354   0.26879   0.00000  Uiso   1.00
C108   C     0.39292   0.23769   0.28955   0.00000  Uiso   1.00
C109   C     0.41715   0.26911   0.29514   0.00000  Uiso   1.00
C110   C     0.45782   0.26630   0.27823   0.00000  Uiso   1.00
C111   C     0.47440   0.23186   0.25771   0.00000  Uiso   1.00
C112   C     0.46906   0.16148   0.23537   0.00000  Uiso   1.00
N113   N     0.51040   0.15396   0.22883   0.00000  Uiso   1.00
N114   N     0.52746   0.11840   0.21563   0.00000  Uiso   1.00
C115   C     0.50397   0.08871   0.20823   0.00000  Uiso   1.00
N116   N     0.46254   0.09642   0.21405   0.00000  Uiso   1.00
N117   N     0.44546   0.13199   0.22747   0.00000  Uiso   1.00
C118   C     0.52367   0.04832   0.19615   0.00000  Uiso   1.00
C119   C     0.50177   1.02066   0.17838   0.00000  Uiso   1.00
C120   C     0.52144   0.98268   0.16697   0.00000  Uiso   1.00
C121   C     0.56297   0.97152   0.17409   0.00000  Uiso   1.00
C122   C     0.58438   0.99903   0.19246   0.00000  Uiso   1.00
C123   C     0.56515   0.03693   0.20300   0.00000  Uiso   1.00
H124   H     0.38998   0.17951   0.26598   0.00000  Uiso   1.00
H125   H     0.36133   0.23908   0.30193   0.00000  Uiso   1.00
H126   H     0.47720   0.29006   0.28193   0.00000  Uiso   1.00
H127   H     0.50619   0.23004   0.24595   0.00000  Uiso   1.00
H128   H     0.46971   1.02863   0.17274   0.00000  Uiso   1.00
H129   H     0.50428   0.96217   0.15267   0.00000  Uiso   1.00
H130   H     0.61659   0.99174   0.19783   0.00000  Uiso   1.00
H131   H     0.58294   0.05728   0.21676   0.00000  Uiso   1.00
C132   C     0.67358   0.25331   0.56154   0.00000  Uiso   1.00
C133   C     0.70320   0.23499   0.53369   0.00000  Uiso   1.00
C134   C     0.74160   0.21883   0.54618   0.00000  Uiso   1.00
C135   C     0.75134   0.22044   0.58685   0.00000  Uiso   1.00
C136   C     0.72342   0.24228   0.61386   0.00000  Uiso   1.00
C137   C     0.68466   0.25879   0.60119   0.00000  Uiso   1.00
C138   C     0.63070   0.26242   0.54981   0.00000  Uiso   1.00
N139   N     0.60399   0.29149   0.56753   0.00000  Uiso   1.00
N140   N     0.56558   0.29912   0.55610   0.00000  Uiso   1.00
C141   C     0.55215   0.27745   0.52711   0.00000  Uiso   1.00
N142   N     0.57875   0.24805   0.50996   0.00000  Uiso   1.00
N143   N     0.61713   0.24073   0.52105   0.00000  Uiso   1.00
C144   C     0.51099   0.28814   0.51122   0.00000  Uiso   1.00
C145   C     0.49386   0.26042   0.48868   0.00000  Uiso   1.00
C146   C     0.45927   0.27325   0.46662   0.00000  Uiso   1.00
C147   C     0.44169   0.31404   0.46646   0.00000  Uiso   1.00
C148   C     0.45685   0.34084   0.49130   0.00000  Uiso   1.00
C149   C     0.49087   0.32788   0.51394   0.00000  Uiso   1.00
H150   H     0.69595   0.23117   0.50268   0.00000  Uiso   1.00
H151   H     0.76270   0.20230   0.52473   0.00000  Uiso   1.00
H152   H     0.73012   0.24349   0.64550   0.00000  Uiso   1.00
H153   H     0.66245   0.27311   0.62318   0.00000  Uiso   1.00
H154   H     0.50852   0.22946   0.48630   0.00000  Uiso   1.00
H155   H     0.44847   0.25235   0.44704   0.00000  Uiso   1.00
H156   H     0.44393   0.37263   0.49109   0.00000  Uiso   1.00
H157   H     0.50325   0.34992   0.53098   0.00000  Uiso   1.00
C158   C     0.74166   0.06115   0.81139   0.00000  Uiso   1.00
C159   C     0.75313   0.03418   0.78036   0.00000  Uiso   1.00
C160   C     0.76538   0.04930   0.74083   0.00000  Uiso   1.00
C161   C     0.76710   0.09148   0.73214   0.00000  Uiso   1.00
C162   C     0.75275   0.11855   0.76228   0.00000  Uiso   1.00
C163   C     0.73966   0.10355   0.80145   0.00000  Uiso   1.00
C164   C     0.73551   0.04527   0.85451   0.00000  Uiso   1.00
N165   N     0.71447   0.06902   0.88275   0.00000  Uiso   1.00
N166   N     0.71056   0.05524   0.92196   0.00000  Uiso   1.00
C167   C     0.72820   1.01748   0.93462   0.00000  Uiso   1.00
N168   N     0.74946   0.99387   0.90641   0.00000  Uiso   1.00
N169   N     0.75309   1.00752   0.86716   0.00000  Uiso   1.00
C170   C     0.72117   1.00071   0.97733   0.00000  Uiso   1.00
C171   C     0.74654   0.96661   0.99297   0.00000  Uiso   1.00
C172   C     0.73508   0.94563   0.03005   0.00000  Uiso   1.00
C173   C     0.69790   0.95823   0.05148   0.00000  Uiso   1.00
C174   C     0.67434   0.99418   0.03770   0.00000  Uiso   1.00
C175   C     0.68616   1.01562   1.00114   0.00000  Uiso   1.00
H176   H     0.75436   1.00135   0.78711   0.00000  Uiso   1.00
H177   H     0.77664   0.02788   0.71812   0.00000  Uiso   1.00
H178   H     0.75388   0.15124   0.75617   0.00000  Uiso   1.00
H179   H     0.73069   0.12507   0.82462   0.00000  Uiso   1.00
H180   H     0.77392   0.95473   0.97541   0.00000  Uiso   1.00
H181   H     0.75314   0.91744   0.03988   0.00000  Uiso   1.00
H182   H     0.64519   1.00387   0.05365   0.00000  Uiso   1.00
H183   H     0.66604   0.04182   0.98994   0.00000  Uiso   1.00
C184   C     0.81301   0.03440   0.42209   0.00000  Uiso   1.00
C185   C     0.84870   0.05262   0.42733   0.00000  Uiso   1.00
C186   C     0.85551   0.06538   0.46572   0.00000  Uiso   1.00
C187   C     0.82715   0.05912   0.49928   0.00000  Uiso   1.00
C188   C     0.79245   0.03949   0.49419   0.00000  Uiso   1.00
C189   C     0.78528   0.02758   0.45598   0.00000  Uiso   1.00
C190   C     0.80343   0.02270   0.38188   0.00000  Uiso   1.00
N191   N     0.76367   0.02182   0.37402   0.00000  Uiso   1.00
N192   N     0.75406   1.00754   0.33980   0.00000  Uiso   1.00
C193   C     0.78369   0.99334   0.31184   0.00000  Uiso   1.00
N194   N     0.82365   0.99528   0.31905   0.00000  Uiso   1.00
N195   N     0.83334   1.00985   0.35340   0.00000  Uiso   1.00
C196   C     0.77209   0.97207   0.27719   0.00000  Uiso   1.00
C197   C     0.80158   0.95553   0.24792   0.00000  Uiso   1.00
C198   C     0.79015   0.93088   0.21874   0.00000  Uiso   1.00
C199   C     0.74927   0.92206   0.21900   0.00000  Uiso   1.00
C200   C     0.71974   0.94008   0.24701   0.00000  Uiso   1.00
C201   C     0.73090   0.96499   0.27548   0.00000  Uiso   1.00
H202   H     0.87054   0.05804   0.40161   0.00000  Uiso   1.00
H203   H     0.88251   0.08054   0.46907   0.00000  Uiso   1.00
H204   H     0.77012   0.03433   0.51957   0.00000  Uiso   1.00
H205   H     0.75781   0.01305   0.45295   0.00000  Uiso   1.00
H206   H     0.83352   0.96064   0.24829   0.00000  Uiso   1.00
H207   H     0.81340   0.91753   0.19711   0.00000  Uiso   1.00
H208   H     0.68788   0.93439   0.24743   0.00000  Uiso   1.00
H209   H     0.70723   0.97738   0.29724   0.00000  Uiso   1.00
C210   C     0.29505   0.49031   0.53129   0.00000  Uiso   1.00
C211   C     0.33135   0.49940   0.50847   0.00000  Uiso   1.00
C212   C     0.34335   0.48105   0.47153   0.00000  Uiso   1.00
C213   C     0.31903   0.45362   0.45680   0.00000  Uiso   1.00
C214   C     0.28147   0.44702   0.47833   0.00000  Uiso   1.00
C215   C     0.26975   0.46495   0.51501   0.00000  Uiso   1.00
C216   C     0.28403   0.50452   0.57294   0.00000  Uiso   1.00
N217   N     0.25802   0.48406   0.59895   0.00000  Uiso   1.00
N218   N     0.24729   0.49610   0.63632   0.00000  Uiso   1.00
C219   C     0.26196   0.52925   0.64954   0.00000  Uiso   1.00
N220   N     0.28826   0.54977   0.62365   0.00000  Uiso   1.00
N221   N     0.29928   0.53750   0.58615   0.00000  Uiso   1.00
C222   C     0.24758   0.54317   0.69074   0.00000  Uiso   1.00
C223   C     0.25366   0.58222   0.70225   0.00000  Uiso   1.00
C224   C     0.23564   0.59627   0.73949   0.00000  Uiso   1.00
C225   C     0.21113   0.57158   0.76560   0.00000  Uiso   1.00
C226   C     0.20692   0.53193   0.75501   0.00000  Uiso   1.00
C227   C     0.22497   0.51786   0.71822   0.00000  Uiso   1.00
H228   H     0.35142   0.51898   0.52015   0.00000  Uiso   1.00
H229   H     0.37258   0.48657   0.45578   0.00000  Uiso   1.00
H230   H     0.26181   0.42630   0.46785   0.00000  Uiso   1.00
H231   H     0.24124   0.45784   0.53131   0.00000  Uiso   1.00
H232   H     0.27090   0.60249   0.68183   0.00000  Uiso   1.00
H233   H     0.23912   0.62712   0.74684   0.00000  Uiso   1.00
H234   H     0.18880   0.51199   0.77489   0.00000  Uiso   1.00
H235   H     0.22018   0.48736   0.71086   0.00000  Uiso   1.00
C236   C     0.21390   0.49175   0.03129   0.00000  Uiso   1.00
C237   C     0.17357   0.48855   0.02108   0.00000  Uiso   1.00
C238   C     0.15932   0.50721   0.98406   0.00000  Uiso   1.00
C239   C     0.18515   0.52944   0.95685   0.00000  Uiso   1.00
C240   C     0.22612   0.53013   0.96585   0.00000  Uiso   1.00
C241   C     0.24034   0.51146   0.00245   0.00000  Uiso   1.00
C242   C     0.22812   0.47763   0.07253   0.00000  Uiso   1.00
N243   N     0.26410   0.48843   0.08370   0.00000  Uiso   1.00
N244   N     0.27668   0.47780   0.12099   0.00000  Uiso   1.00
C245   C     0.25389   0.45583   0.14900   0.00000  Uiso   1.00
N246   N     0.21789   0.44471   0.13791   0.00000  Uiso   1.00
N247   N     0.20515   0.45556   0.10049   0.00000  Uiso   1.00
C248   C     0.26878   0.44428   0.19044   0.00000  Uiso   1.00
C249   C     0.25149   0.41427   0.21715   0.00000  Uiso   1.00
C250   C     0.26809   0.40180   0.25491   0.00000  Uiso   1.00
C251   C     0.30220   0.41918   0.26665   0.00000  Uiso   1.00
C252   C     0.31833   0.45024   0.24059   0.00000  Uiso   1.00
C253   C     0.30189   0.46259   0.20306   0.00000  Uiso   1.00
H254   H     0.15246   0.47342   0.04250   0.00000  Uiso   1.00
H255   H     0.12746   0.50661   0.97803   0.00000  Uiso   1.00
H256   H     0.24679   0.54689   0.94539   0.00000  Uiso   1.00
H257   H     0.27175   0.51404   0.00881   0.00000  Uiso   1.00
H258   H     0.22599   0.39955   0.20837   0.00000  Uiso   1.00
H259   H     0.25515   0.37761   0.27421   0.00000  Uiso   1.00
H260   H     0.34445   0.46445   0.24872   0.00000  Uiso   1.00
H261   H     0.31569   0.48616   0.18361   0.00000  Uiso   1.00
C262   C     0.16245   0.25766   0.46750   0.00000  Uiso   1.00
C263   C     0.19270   0.25210   0.49615   0.00000  Uiso   1.00
C264   C     0.22982   0.26928   0.48769   0.00000  Uiso   1.00
C265   C     0.23758   0.29134   0.45002   0.00000  Uiso   1.00
C266   C     0.20730   0.29683   0.42153   0.00000  Uiso   1.00
C267   C     0.16998   0.28058   0.43035   0.00000  Uiso   1.00
C268   C     0.12314   0.23982   0.47607   0.00000  Uiso   1.00
N269   N     0.08870   0.25767   0.45867   0.00000  Uiso   1.00
N270   N     0.05305   0.24206   0.46671   0.00000  Uiso   1.00
C271   C     0.05058   0.20757   0.49194   0.00000  Uiso   1.00
N272   N     0.08510   0.18946   0.50901   0.00000  Uiso   1.00
N273   N     0.12067   0.20534   0.50132   0.00000  Uiso   1.00
C274   C     0.01056   0.19197   0.50343   0.00000  Uiso   1.00
C275   C     0.00851   0.15044   0.51623   0.00000  Uiso   1.00
C276   C     0.97156   0.13703   0.53309   0.00000  Uiso   1.00
C277   C     0.93650   0.16511   0.53814   0.00000  Uiso   1.00
C278   C     0.93791   0.20611   0.52346   0.00000  Uiso   1.00
C279   C     0.97451   0.21932   0.50554   0.00000  Uiso   1.00
H280   H     0.18752   0.23476   0.52517   0.00000  Uiso   1.00
H281   H     0.25275   0.26452   0.51009   0.00000  Uiso   1.00
H282   H     0.21244   0.31389   0.39233   0.00000  Uiso   1.00
H283   H     0.14729   0.28529   0.40770   0.00000  Uiso   1.00
H284   H     0.03585   0.12874   0.51480   0.00000  Uiso   1.00
H285   H     0.97122   0.10548   0.54527   0.00000  Uiso   1.00
H286   H     0.91132   0.22833   0.52803   0.00000  Uiso   1.00
H287   H     0.97527   0.25152   0.49610   0.00000  Uiso   1.00
C288   C     0.96925   0.95309   0.70142   0.00000  Uiso   1.00
C289   C     0.95645   0.95779   0.66139   0.00000  Uiso   1.00
C290   C     0.93724  -0.00486   0.64610   0.00000  Uiso   1.00
C291   C     0.92999   0.02883   0.67045   0.00000  Uiso   1.00
C292   C     0.94465   0.02508   0.70973   0.00000  Uiso   1.00
C293   C     0.96416   0.98743   0.72512   0.00000  Uiso   1.00
C294   C     0.98665   0.91224   0.71836   0.00000  Uiso   1.00
N295   N     1.00354   0.90788   0.75507   0.00000  Uiso   1.00
N296   N     0.01922   0.87117   0.77014   0.00000  Uiso   1.00
C297   C     1.01848   0.83719   0.74936   0.00000  Uiso   1.00
N298   N     1.00120   0.84142   0.71281   0.00000  Uiso   1.00
N299   N     0.98562   0.87821   0.69766   0.00000  Uiso   1.00
C300   C     0.03788   0.79696   0.76579   0.00000  Uiso   1.00
C301   C     0.03122   0.75972   0.75016   0.00000  Uiso   1.00
C302   C     0.05066   0.72219   0.76630   0.00000  Uiso   1.00
C303   C     0.07763   0.72173   0.79754   0.00000  Uiso   1.00
C304   C     0.08390   0.75897   0.81294   0.00000  Uiso   1.00
C305   C     0.06420   0.79588   0.79755   0.00000  Uiso   1.00
H306   H     0.96034   0.93231   0.64205   0.00000  Uiso   1.00
H307   H     0.92661  -0.00284   0.61549   0.00000  Uiso   1.00
H308   H     0.93921   0.05045   0.72918   0.00000  Uiso   1.00
H309   H     0.97394   0.98488   0.75606   0.00000  Uiso   1.00
H310   H     0.01091   0.75961   0.72572   0.00000  Uiso   1.00
H311   H     0.04512   0.69386   0.75413   0.00000  Uiso   1.00
H312   H     0.10380   0.75965   0.83766   0.00000  Uiso   1.00
H313   H     0.07008   0.82373   0.81045   0.00000  Uiso   1.00
C314   C     0.03326   0.44106   0.77560   0.00000  Uiso   1.00
C315   C     1.00864   0.46652   0.80222   0.00000  Uiso   1.00
C316   C     0.02386   0.49999   0.81688   0.00000  Uiso   1.00
C317   C     0.06397   0.50902   0.80516   0.00000  Uiso   1.00
C318   C     0.08841   0.48440   0.77776   0.00000  Uiso   1.00
C319   C     0.07323   0.45061   0.76317   0.00000  Uiso   1.00
C320   C     1.01729   0.40440   0.76194   0.00000  Uiso   1.00
N321   N     0.04156   0.37724   0.73920   0.00000  Uiso   1.00
N322   N     0.02711   0.34390   0.72794   0.00000  Uiso   1.00
C323   C     0.98782   0.33629   0.73900   0.00000  Uiso   1.00
N324   N     0.96362   0.36353   0.76160   0.00000  Uiso   1.00
N325   N     0.97804   0.39677   0.77286   0.00000  Uiso   1.00
C326   C     0.97139   0.29938   0.72650   0.00000  Uiso   1.00
C327   C     0.92988   0.29351   0.73588   0.00000  Uiso   1.00
C328   C     0.91382   0.25954   0.72310   0.00000  Uiso   1.00
C329   C     0.93886   0.23051   0.70079   0.00000  Uiso   1.00
C330   C     0.98058   0.23578   0.69213   0.00000  Uiso   1.00
C331   C     0.99665   0.26991   0.70478   0.00000  Uiso   1.00
H332   H     0.97773   0.46021   0.81243   0.00000  Uiso   1.00
H333   H     1.00435   0.51847   0.83801   0.00000  Uiso   1.00
H334   H     0.11948   0.49070   0.76834   0.00000  Uiso   1.00
H335   H     0.09298   0.43173   0.74261   0.00000  Uiso   1.00
H336   H     0.90954   0.31542   0.75274   0.00000  Uiso   1.00
H337   H     0.88161   0.25626   0.73042   0.00000  Uiso   1.00
H338   H     1.00068   0.21389   0.67499   0.00000  Uiso   1.00
H339   H     1.02880   0.27333   0.69725   0.00000  Uiso   1.00
C340   C     0.80893   0.74958   0.04533   0.00000  Uiso   1.00
C341   C     0.78353   0.77583   0.01965   0.00000  Uiso   1.00
C342   C     0.74435   0.79200   0.03432   0.00000  Uiso   1.00
C343   C     0.73035   0.78271   0.07507   0.00000  Uiso   1.00
C344   C     0.75460   0.75443   0.09982   0.00000  Uiso   1.00
C345   C     0.79330   0.73769   0.08498   0.00000  Uiso   1.00
C346   C     0.85240   0.73699   0.03223   0.00000  Uiso   1.00
N347   N     0.87413   0.70523   0.05268   0.00000  Uiso   1.00
N348   N     0.91366   0.69489   1.04204   0.00000  Uiso   1.00
C349   C     0.93332   0.71627   1.01092   0.00000  Uiso   1.00
N350   N     0.91165   0.74815   0.99055   0.00000  Uiso   1.00
N351   N     0.87202   0.75833   1.00103   0.00000  Uiso   1.00
C352   C     0.97651   0.70302   0.99736   0.00000  Uiso   1.00
C353   C     0.99985   0.72914   0.97150   0.00000  Uiso   1.00
C354   C     0.03798   0.71416   0.95330   0.00000  Uiso   1.00
C355   C     0.05292   0.67277   0.96028   0.00000  Uiso   1.00
C356   C     0.03113   0.64754   0.98839   0.00000  Uiso   1.00
C357   C     0.99353   0.66264   1.00719   0.00000  Uiso   1.00
H358   H     0.79456   0.78520   0.98879   0.00000  Uiso   1.00
H359   H     0.72649   0.81432   0.01493   0.00000  Uiso   1.00
H360   H     0.74456   0.74712   0.13150   0.00000  Uiso   1.00
H361   H     0.81197   0.71745   0.10551   0.00000  Uiso   1.00
H362   H     0.98773   0.76054   0.96371   0.00000  Uiso   1.00
H363   H     0.05389   0.73384   0.93095   0.00000  Uiso   1.00
H364   H     0.04187   0.61532   0.99359   0.00000  Uiso   1.00
H365   H     0.97647   0.64176   1.02705   0.00000  Uiso   1.00
C366   C     0.55319   0.70504   0.24666   0.00000  Uiso   1.00
C367   C     0.56611   0.73620   0.26789   0.00000  Uiso   1.00
C368   C     0.58217   0.77003   0.24624   0.00000  Uiso   1.00
C369   C     0.58446   0.77356   0.20317   0.00000  Uiso   1.00
C370   C     0.57045   0.74289   0.18226   0.00000  Uiso   1.00
C371   C     0.55538   0.70894   0.20369   0.00000  Uiso   1.00
C372   C     0.53891   0.66754   0.26820   0.00000  Uiso   1.00
N373   N     0.54448   0.63206   0.24922   0.00000  Uiso   1.00
N374   N     0.53071   0.59819   0.26710   0.00000  Uiso   1.00
C375   C     0.51045   0.59822   0.30467   0.00000  Uiso   1.00
N376   N     0.50487   0.63371   0.32394   0.00000  Uiso   1.00
N377   N     0.51908   0.66771   0.30612   0.00000  Uiso   1.00
C378   C     0.49364   0.56037   0.32258   0.00000  Uiso   1.00
C379   C     0.45958   0.56146   0.35136   0.00000  Uiso   1.00
C380   C     0.44069   0.52571   0.36311   0.00000  Uiso   1.00
C381   C     0.45593   0.48853   0.34646   0.00000  Uiso   1.00
C382   C     0.49133   0.48722   0.31966   0.00000  Uiso   1.00
C383   C     0.50985   0.52263   0.30781   0.00000  Uiso   1.00
H384   H     0.56484   0.73382   0.30105   0.00000  Uiso   1.00
H385   H     0.59273   0.79335   0.26305   0.00000  Uiso   1.00
H386   H     0.57224   0.74450   0.14911   0.00000  Uiso   1.00
H387   H     0.54548   0.68555   0.18647   0.00000  Uiso   1.00
H388   H     0.44643   0.59015   0.36324   0.00000  Uiso   1.00
H389   H     0.41342   0.52745   0.38388   0.00000  Uiso   1.00
H390   H     0.50393   0.45897   0.30648   0.00000  Uiso   1.00
H391   H     0.53632   0.52060   0.28599   0.00000  Uiso   1.00
loop_
_geom_bond_atom_site_label_1
_geom_bond_atom_site_label_2
_geom_bond_distance
_geom_bond_site_symmetry_2
_ccdc_geom_bond_type
C0     O8      1.217   .     D
C0     O9      1.394   .     S
C0     C95     1.477   .     S
Er1    O11     2.193   .     S
Er1    O13     2.205   .     S
Er1    O15     2.191   .     S
Er1    O17     2.149   .     S
Er1    O18     2.208   .     S
Er1    O19     2.183   .     S
Er2    O4      2.159   .     S
Er2    O9      2.226   .     S
Er2    O10     2.184   .     S
Er2    O12     2.135   .     S
Er2    O16     2.194   .     S
C3     O16     1.270   .     A
C3     O17     1.262   .     A
C3     C355    1.467   .     S
O4     C14     1.269   .     A
C5     O12     1.268   .     A
C5     O13     1.280   .     A
C5     C303    1.478   .     S
C6     O10     1.272   .     A
C6     O11     1.279   .     A
C6     C225    1.481   .     S
C7     O18     1.271   .     A
C7     O19     1.259   .     A
C7     C317    1.475   .     S
C14    O15     1.275   .     A
C14    C239    1.479   .     S
C20    O28     1.218   .     D
C20    O29     1.391   .     S
C20    C199    1.471   .     S
Er21   O31     2.198   .     S
Er21   O33     2.196   .     S
Er21   O35     2.189   .     S
Er21   O37     2.150   .     S
Er21   O38     2.195   .     S
Er21   O39     2.192   .     S
Er22   O24     2.154   .     S
Er22   O29     2.211   .     S
Er22   O30     2.178   .     S
Er22   O32     2.146   .     S
Er22   O36     2.185   .     S
C23    O36     1.268   .     A
C23    O37     1.263   .     A
C23    C173    1.461   .     S
O24    C34     1.270   .     A
C25    O32     1.268   .     A
C25    O33     1.278   .     A
C25    C343    1.472   .     S
C26    O30     1.268   .     A
C26    O31     1.279   .     A
C26    C369    1.478   .     S
C27    O38     1.271   .     A
C27    O39     1.261   .     A
C27    C83     1.472   .     S
C34    O35     1.277   .     A
C34    C121    1.480   .     S
C40    O48     1.218   .     D
C40    O49     1.395   .     S
C40    C329    1.479   .     S
Er41   O51     2.146   .     S
Er41   O53     2.196   .     S
Er41   O55     2.215   .     S
Er41   O57     2.129   .     S
Er41   O58     2.199   .     S
Er41   O59     2.174   .     S
Er42   O44     2.153   .     S
Er42   O49     2.224   .     S
Er42   O50     2.196   .     S
Er42   O52     2.139   .     S
Er42   O56     2.212   .     S
C43    O56     1.281   .     A
C43    O57     1.265   .     A
C43    C291    1.478   .     S
O44    C54     1.262   .     A
C45    O52     1.262   .     A
C45    O53     1.272   .     A
C45    C161    1.469   .     S
C46    O50     1.276   .     A
C46    O51     1.267   .     A
C46    C135    1.474   .     S
C47    O58     1.273   .     A
C47    O59     1.262   .     A
C47    C187    1.468   .     S
C54    O55     1.281   .     A
C54    C277    1.464   .     S
C60    O68     1.218   .     D
C60    O69     1.390   .     S
C60    C265    1.476   .     S
Er61   O71     2.163   .     S
Er61   O73     2.199   .     S
Er61   O75     2.214   .     S
Er61   O77     2.151   .     S
Er61   O78     2.213   .     S
Er61   O79     2.171   .     S
Er62   O64     2.156   .     S
Er62   O69     2.218   .     S
Er62   O70     2.187   .     S
Er62   O72     2.146   .     S
Er62   O76     2.196   .     S
C63    O76     1.278   .     A
C63    O77     1.269   .     A
C63    C147    1.469   .     S
O64    C74     1.269   .     A
C65    O72     1.262   .     A
C65    O73     1.273   .     A
C65    C109    1.481   .     S
C66    O70     1.274   .     A
C66    O71     1.270   .     A
C66    C251    1.484   .     S
C67    O78     1.273   .     A
C67    O79     1.259   .     A
C67    C381    1.476   .     S
C74    O75     1.283   .     A
C74    C213    1.485   .     S
C80    C81     1.410   .     A
C80    C85     1.353   1_554 D
C80    C86     1.484   1_554 S
C81    C82     1.395   .     A
C81    H98     1.083   .     S
C82    C83     1.400   .     A
C82    H99     1.083   .     S
C83    C84     1.403   1_554 A
C84    C85     1.402   .     A
C84    H100    1.083   .     S
C84    C83     1.403   1_556 A
C85    H101    1.083   .     S
C85    C80     1.353   1_556 D
C86    N87     1.360   .     A
C86    C80     1.484   1_556 S
C86    N91     1.357   1_556 A
N87    N88     1.333   .     A
N88    C89     1.359   .     A
C89    C92     1.481   .     S
C89    N90     1.357   1_556 A
N90    N91     1.329   .     A
N90    C89     1.357   1_554 A
N91    C86     1.357   1_554 A
C92    C93     1.405   .     A
C92    C97     1.407   .     A
C93    C94     1.393   .     A
C93    H102    1.083   1_556 S
C94    C95     1.404   .     A
C94    H103    1.083   .     S
C95    C96     1.405   .     A
C96    C97     1.400   .     A
C96    H104    1.083   .     S
C97    H105    1.083   .     S
H102   C93     1.083   1_554 S
C106   C107    1.404   .     A
C106   C111    1.409   .     A
C106   C112    1.483   .     S
C107   C108    1.396   .     A
C107   H124    1.083   .     S
C108   C109    1.407   .     A
C108   H125    1.083   .     S
C109   C110    1.404   .     A
C110   C111    1.401   .     A
C110   H126    1.083   .     S
C111   H127    1.083   .     S
C112   N113    1.357   .     A
C112   N117    1.362   .     A
N113   N114    1.330   .     A
N114   C115    1.360   .     A
C115   N116    1.358   .     A
C115   C118    1.482   .     S
N116   N117    1.333   .     A
C118   C123    1.402   .     A
C118   C119    1.409   1_545 A
C119   C120    1.406   .     A
C119   H128    1.083   .     S
C119   C118    1.409   1_565 A
C120   C121    1.405   .     A
C120   H129    1.083   .     S
C121   C122    1.406   .     A
C122   H130    1.083   .     S
C122   C123    1.390   1_565 A
C123   H131    1.083   .     S
C123   C122    1.390   1_545 A
C132   C133    1.403   .     A
C132   C137    1.409   .     A
C132   C138    1.481   .     S
C133   C134    1.391   .     A
C133   H150    1.083   .     S
C134   C135    1.403   .     A
C134   H151    1.084   .     S
C135   C136    1.405   .     A
C136   C137    1.407   .     A
C136   H152    1.083   .     S
C137   H153    1.083   .     S
C138   N139    1.359   .     A
C138   N143    1.359   .     A
N139   N140    1.335   .     A
N140   C141    1.362   .     A
C141   N142    1.356   .     A
C141   C144    1.482   .     S
N142   N143    1.330   .     A
C144   C145    1.410   .     A
C144   C149    1.404   .     A
C145   C146    1.401   .     A
C145   H154    1.083   .     S
C146   C147    1.400   .     A
C146   H155    1.083   .     S
C147   C148    1.404   .     A
C148   C149    1.397   .     A
C148   H156    1.084   .     S
C149   H157    1.083   .     S
C158   C159    1.407   .     A
C158   C163    1.403   .     A
C158   C164    1.477   .     S
C159   C160    1.399   .     A
C159   H176    1.083   1_545 S
C160   C161    1.402   .     A
C160   H177    1.083   .     S
C161   C162    1.404   .     A
C162   C163    1.395   .     A
C162   H178    1.083   .     S
C163   H179    1.083   .     S
C164   N165    1.358   .     A
C164   N169    1.357   1_545 A
N165   N166    1.332   .     A
N166   C167    1.358   1_545 A
C167   N168    1.358   .     A
C167   C170    1.477   .     S
C167   N166    1.358   1_565 A
N168   N169    1.331   .     A
N169   C164    1.357   1_565 A
C170   C171    1.407   .     A
C170   C175    1.404   .     A
C171   H180    1.083   .     S
C171   C172    1.398   1_556 A
C172   C173    1.400   .     A
C172   H181    1.084   .     S
C172   C171    1.398   1_554 A
C173   C174    1.402   .     A
C174   H182    1.084   .     S
C174   C175    1.395   1_554 A
C175   C174    1.395   1_556 A
C175   H183    1.083   1_565 S
H176   C159    1.083   1_565 S
H183   C175    1.083   1_545 S
C184   C185    1.404   .     A
C184   C189    1.404   .     A
C184   C190    1.471   .     S
C185   C186    1.402   .     A
C185   H202    1.083   .     S
C186   C187    1.406   .     A
C186   H203    1.083   .     S
C187   C188    1.400   .     A
C188   C189    1.389   .     A
C188   H204    1.083   .     S
C189   H205    1.083   .     S
C190   N191    1.355   .     A
C190   N195    1.360   1_545 A
N191   N192    1.325   1_545 A
N192   C193    1.356   .     A
N192   N191    1.325   1_565 A
C193   N194    1.361   .     A
C193   C196    1.478   .     S
N194   N195    1.334   .     A
N195   C190    1.360   1_565 A
C196   C197    1.407   .     A
C196   C201    1.405   .     A
C197   C198    1.402   .     A
C197   H206    1.083   .     S
C198   C199    1.406   .     A
C198   H207    1.083   .     S
C199   C200    1.400   .     A
C200   C201    1.388   .     A
C200   H208    1.083   .     S
C201   H209    1.083   .     S
C210   C211    1.408   .     A
C210   C215    1.404   .     A
C210   C216    1.486   .     S
C211   C212    1.408   .     A
C211   H228    1.083   .     S
C212   C213    1.408   .     A
C212   H229    1.083   .     S
C213   C214    1.405   .     A
C214   C215    1.393   .     A
C214   H230    1.083   .     S
C215   H231    1.083   .     S
C216   N217    1.357   .     A
C216   N221    1.361   .     A
N217   N218    1.329   .     A
N218   C219    1.357   .     A
C219   N220    1.362   .     A
C219   C222    1.489   .     S
N220   N221    1.338   .     A
C222   C223    1.409   .     A
C222   C227    1.407   .     A
C223   C224    1.406   .     A
C223   H232    1.083   .     S
C224   C225    1.406   .     A
C224   H233    1.083   .     S
C225   C226    1.402   .     A
C226   C227    1.394   .     A
C226   H234    1.083   .     S
C227   H235    1.083   .     S
C236   C237    1.409   .     A
C236   C241    1.406   .     A
C236   C242    1.488   .     S
C237   H254    1.083   .     S
C237   C238    1.406   1_554 A
C238   C239    1.405   .     A
C238   H255    1.083   .     S
C238   C237    1.406   1_556 A
C239   C240    1.404   .     A
C240   H256    1.084   .     S
C240   C241    1.393   1_556 A
C241   H257    1.083   .     S
C241   C240    1.393   1_554 A
C242   N243    1.357   .     A
C242   N247    1.361   .     A
N243   N244    1.329   .     A
N244   C245    1.357   .     A
C245   N246    1.361   .     A
C245   C248    1.487   .     S
N246   N247    1.336   .     A
C248   C249    1.408   .     A
C248   C253    1.406   .     A
C249   C250    1.405   .     A
C249   H258    1.083   .     S
C250   C251    1.407   .     A
C250   H259    1.083   .     S
C251   C252    1.405   .     A
C252   C253    1.395   .     A
C252   H260    1.083   .     S
C253   H261    1.083   .     S
C262   C263    1.407   .     A
C262   C267    1.403   .     A
C262   C268    1.478   .     S
C263   C264    1.402   .     A
C263   H280    1.083   .     S
C264   C265    1.404   .     A
C264   H281    1.083   .     S
C265   C266    1.404   .     A
C266   C267    1.395   .     A
C266   H282    1.083   .     S
C267   H283    1.083   .     S
C268   N269    1.358   .     A
C268   N273    1.358   .     A
N269   N270    1.332   .     A
N270   C271    1.357   .     A
C271   N272    1.359   .     A
C271   C274    1.477   .     S
N272   N273    1.333   .     A
C274   C275    1.405   .     A
C274   C279    1.405   1_455 A
C275   H284    1.083   .     S
C275   C276    1.399   1_455 A
C276   C277    1.401   .     A
C276   H285    1.084   .     S
C276   C275    1.399   1_655 A
C277   C278    1.401   .     A
C278   C279    1.397   .     A
C278   H286    1.083   .     S
C279   H287    1.083   .     S
C279   C274    1.405   1_655 A
C288   C289    1.402   .     A
C288   C293    1.411   .     A
C288   C294    1.483   .     S
C289   H306    1.083   .     S
C289   C290    1.391   1_565 A
C290   C291    1.407   .     A
C290   H307    1.084   .     S
C290   C289    1.391   1_545 A
C291   C292    1.402   .     A
C292   H308    1.083   .     S
C292   C293    1.404   1_545 A
C293   H309    1.083   .     S
C293   C292    1.404   1_565 A
C294   N295    1.355   .     A
C294   N299    1.361   .     A
N295   N296    1.331   1_655 A
N296   N295    1.331   1_455 A
N296   C297    1.360   1_455 A
C297   N298    1.357   .     A
C297   N296    1.360   1_655 A
C297   C300    1.483   1_655 S
N298   N299    1.334   .     A
C300   C301    1.412   .     A
C300   C305    1.400   .     A
C300   C297    1.483   1_455 S
C301   C302    1.408   .     A
C301   H310    1.083   .     S
C302   C303    1.404   .     A
C302   H311    1.083   .     S
C303   C304    1.406   .     A
C304   C305    1.387   .     A
C304   H312    1.084   .     S
C305   H313    1.083   .     S
C314   C319    1.408   .     A
C314   C315    1.406   1_455 A
C314   C320    1.484   1_455 S
C315   H332    1.083   .     S
C315   C314    1.406   1_655 A
C315   C316    1.394   1_655 A
C316   C317    1.403   .     A
C316   C315    1.394   1_455 A
C316   H333    1.083   1_455 S
C317   C318    1.404   .     A
C318   C319    1.401   .     A
C318   H334    1.082   .     S
C319   H335    1.083   .     S
C320   N325    1.358   .     A
C320   C314    1.484   1_655 S
C320   N321    1.359   1_655 A
N321   N322    1.333   .     A
N321   C320    1.359   1_455 A
N322   C323    1.360   1_455 A
C323   N324    1.357   .     A
C323   C326    1.483   .     S
C323   N322    1.360   1_655 A
N324   N325    1.330   .     A
C326   C327    1.407   .     A
C326   C331    1.406   .     A
C327   C328    1.396   .     A
C327   H336    1.083   .     S
C328   C329    1.403   .     A
C328   H337    1.083   .     S
C329   C330    1.406   .     A
C330   C331    1.399   .     A
C330   H338    1.083   .     S
C331   H339    1.083   .     S
H333   C316    1.083   1_655 S
C340   C341    1.408   .     A
C340   C345    1.405   .     A
C340   C346    1.483   .     S
C341   C342    1.401   .     A
C341   H358    1.083   1_554 S
C342   C343    1.403   .     A
C342   H359    1.083   .     S
C343   C344    1.404   .     A
C344   C345    1.396   .     A
C344   H360    1.084   .     S
C345   H361    1.083   .     S
C346   N347    1.358   .     A
C346   N351    1.359   1_554 A
N347   N348    1.332   1_554 A
N348   C349    1.358   .     A
N348   N347    1.332   1_556 A
C349   N350    1.359   .     A
C349   C352    1.482   .     S
N350   N351    1.333   .     A
N351   C346    1.359   1_556 A
C352   C353    1.408   .     A
C352   C357    1.405   .     A
C353   H362    1.083   .     S
C353   C354    1.401   1_655 A
C354   C355    1.402   .     A
C354   H363    1.084   .     S
C354   C353    1.401   1_455 A
C355   C356    1.402   .     A
C356   H364    1.084   .     S
C356   C357    1.396   1_455 A
C357   H365    1.083   .     S
C357   C356    1.396   1_655 A
H358   C341    1.083   1_556 S
C366   C367    1.406   .     A
C366   C371    1.404   .     A
C366   C372    1.479   .     S
C367   C368    1.405   .     A
C367   H384    1.083   .     S
C368   C369    1.406   .     A
C368   H385    1.083   .     S
C369   C370    1.403   .     A
C370   C371    1.392   .     A
C370   H386    1.083   .     S
C371   H387    1.083   .     S
C372   N373    1.356   .     A
C372   N377    1.361   .     A
N373   N374    1.328   .     A
N374   C375    1.357   .     A
C375   N376    1.361   .     A
C375   C378    1.481   .     S
N376   N377    1.336   .     A
C378   C379    1.408   .     A
C378   C383    1.404   .     A
C379   C380    1.406   .     A
C379   H388    1.083   .     S
C380   C381    1.406   .     A
C380   H389    1.083   .     S
C381   C382    1.403   .     A
C382   C383    1.391   .     A
C382   H390    1.083   .     S
C383   H391    1.083   .     S
